<?xml version="1.0" encoding="UTF-8"?>

<!-- generated on 2025-03-09 22:32:02 by Eclipse SUMO netconvert Version 1.22.0
<netconvertConfiguration xmlns:xsi="http://www.w3.org/2001/XMLSchema-instance" xsi:noNamespaceSchemaLocation="http://sumo.dlr.de/xsd/netconvertConfiguration.xsd">

    <input>
        <sumo-net-file value="osm.net.xml"/>
    </input>

    <output>
        <plain-output-prefix value="output"/>
        <output.street-names value="true"/>
    </output>

    <processing>
        <geometry.min-radius.fix.railways value="false"/>
        <geometry.max-grade.fix value="false"/>
        <offset.disable-normalization value="true"/>
        <lefthand value="1"/>
    </processing>

    <junctions>
        <no-turnarounds value="true"/>
        <junctions.corner-detail value="5"/>
        <junctions.limit-turn-speed value="5.50"/>
        <rectangular-lane-cut value="0"/>
    </junctions>

    <pedestrian>
        <walkingareas value="0"/>
    </pedestrian>

</netconvertConfiguration>
-->

<connections version="1.20" xmlns:xsi="http://www.w3.org/2001/XMLSchema-instance" xsi:noNamespaceSchemaLocation="http://sumo.dlr.de/xsd/connections_file.xsd">
    <connection from="-1083437763" to="1083437763" fromLane="0" toLane="0"/>

    <connection from="-1116026256" to="-251750366#0" fromLane="0" toLane="0"/>
    <connection from="-1116026256" to="251750366#1" fromLane="0" toLane="0"/>
    <connection from="-1116026256" to="1116026256" fromLane="0" toLane="0"/>

    <connection from="-1274749359#0" to="-250523005#1" fromLane="0" toLane="0"/>
    <connection from="-1274749359#0" to="250635319#1" fromLane="0" toLane="0"/>
    <connection from="-1274749359#0" to="-801337281" fromLane="0" toLane="0"/>
    <connection from="-1274749359#0" to="1274749359#0" fromLane="0" toLane="0"/>

    <connection from="-1274749359#1" to="1312268130#0" fromLane="0" toLane="0"/>
    <connection from="-1274749359#1" to="-1274749359#0" fromLane="0" toLane="0"/>
    <connection from="-1274749359#1" to="1274749359#1" fromLane="0" toLane="0"/>

    <connection from="-1274749359#2" to="1312268128#0" fromLane="0" toLane="0"/>
    <connection from="-1274749359#2" to="-1274749359#1" fromLane="0" toLane="0"/>
    <connection from="-1274749359#2" to="1274749359#2" fromLane="0" toLane="0"/>

    <connection from="-1312265151" to="1312265151" fromLane="0" toLane="0"/>

    <connection from="-1312265152" to="-1312265151" fromLane="0" toLane="0"/>
    <connection from="-1312265152" to="1312265154" fromLane="0" toLane="0"/>
    <connection from="-1312265152" to="1312265153" fromLane="0" toLane="0"/>

    <connection from="-1312265154" to="1312265153" fromLane="0" toLane="0"/>
    <connection from="-1312265154" to="-1312265151" fromLane="0" toLane="0"/>
    <connection from="-1312265154" to="1312265154" fromLane="0" toLane="0"/>

    <connection from="-1312265157#0" to="-956670654#0" fromLane="0" toLane="0"/>
    <connection from="-1312265157#0" to="956670654#1" fromLane="0" toLane="0"/>
    <connection from="-1312265157#0" to="1312265157#0" fromLane="0" toLane="0"/>

    <connection from="-1312265157#1" to="-1312265157#0" fromLane="0" toLane="0"/>
    <connection from="-1312265157#1" to="1312268116" fromLane="0" toLane="0"/>
    <connection from="-1312265157#1" to="1312265157#1" fromLane="0" toLane="0"/>

    <connection from="-1312268116" to="1312265157#1" fromLane="0" toLane="0"/>
    <connection from="-1312268116" to="-1312265157#0" fromLane="0" toLane="0"/>
    <connection from="-1312268116" to="1312268116" fromLane="0" toLane="0"/>

    <connection from="-1312268117#0" to="1312268117#0" fromLane="0" toLane="0"/>

    <connection from="-1312268117#1" to="-1312268117#0" fromLane="0" toLane="0"/>
    <connection from="-1312268117#1" to="1312268118" fromLane="0" toLane="0"/>
    <connection from="-1312268117#1" to="1312268117#1" fromLane="0" toLane="0"/>

    <connection from="-1312268117#2" to="-1312268117#1" fromLane="0" toLane="0"/>
    <connection from="-1312268117#2" to="1312268119#0" fromLane="0" toLane="0"/>
    <connection from="-1312268117#2" to="1312268117#2" fromLane="0" toLane="0"/>

    <connection from="-1312268118" to="1312268117#1" fromLane="0" toLane="0"/>
    <connection from="-1312268118" to="-1312268117#0" fromLane="0" toLane="0"/>
    <connection from="-1312268118" to="1312268118" fromLane="0" toLane="0"/>

    <connection from="-1312268119#0" to="1312268117#2" fromLane="0" toLane="0"/>
    <connection from="-1312268119#0" to="-1312268117#1" fromLane="0" toLane="0"/>
    <connection from="-1312268119#0" to="1312268119#0" fromLane="0" toLane="0"/>

    <connection from="-1312268119#1" to="-1312268119#0" fromLane="0" toLane="0"/>
    <connection from="-1312268119#1" to="1312268120#0" fromLane="0" toLane="0"/>
    <connection from="-1312268119#1" to="1312268119#1" fromLane="0" toLane="0"/>

    <connection from="-1312268120#0" to="1312268119#1" fromLane="0" toLane="0"/>
    <connection from="-1312268120#0" to="-1312268119#0" fromLane="0" toLane="0"/>
    <connection from="-1312268120#0" to="1312268120#0" fromLane="0" toLane="0"/>

    <connection from="-1312268120#1" to="-1312268120#0" fromLane="0" toLane="0"/>
    <connection from="-1312268120#1" to="1312268121#1" fromLane="0" toLane="0"/>
    <connection from="-1312268120#1" to="1312268122" fromLane="0" toLane="0"/>
    <connection from="-1312268120#1" to="1312268120#1" fromLane="0" toLane="0"/>

    <connection from="-1312268120#2" to="-1312268120#1" fromLane="0" toLane="0"/>
    <connection from="-1312268120#2" to="-1312268122" fromLane="0" toLane="0"/>
    <connection from="-1312268120#2" to="1312268120#2" fromLane="0" toLane="0"/>

    <connection from="-1312268121#1" to="1312268122" fromLane="0" toLane="0"/>
    <connection from="-1312268121#1" to="1312268120#1" fromLane="0" toLane="0"/>
    <connection from="-1312268121#1" to="-1312268120#0" fromLane="0" toLane="0"/>
    <connection from="-1312268121#1" to="1312268121#1" fromLane="0" toLane="0"/>

    <connection from="-1312268122" to="1312268120#1" fromLane="0" toLane="0"/>
    <connection from="-1312268122" to="-1312268120#0" fromLane="0" toLane="0"/>
    <connection from="-1312268122" to="1312268121#1" fromLane="0" toLane="0"/>
    <connection from="-1312268122" to="1312268122" fromLane="0" toLane="0"/>

    <connection from="-1312268123#0" to="240191538#1" fromLane="0" toLane="0"/>
    <connection from="-1312268123#0" to="-240191538#0" fromLane="0" toLane="0"/>
    <connection from="-1312268123#0" to="1312268123#0" fromLane="0" toLane="0"/>

    <connection from="-1312268123#1" to="1312268126#0" fromLane="0" toLane="0"/>
    <connection from="-1312268123#1" to="-1312268123#0" fromLane="0" toLane="0"/>
    <connection from="-1312268123#1" to="1312268123#1" fromLane="0" toLane="0"/>

    <connection from="-1312268123#2" to="-1312268123#1" fromLane="0" toLane="0"/>
    <connection from="-1312268123#2" to="1312268125" fromLane="0" toLane="0"/>
    <connection from="-1312268123#2" to="1312268123#2" fromLane="0" toLane="0"/>

    <connection from="-1312268123#3" to="1312268124" fromLane="0" toLane="0"/>
    <connection from="-1312268123#3" to="-1312268123#2" fromLane="0" toLane="0"/>
    <connection from="-1312268123#3" to="1312268123#3" fromLane="0" toLane="0"/>

    <connection from="-1312268124" to="-1312268123#2" fromLane="0" toLane="0"/>
    <connection from="-1312268124" to="1312268123#3" fromLane="0" toLane="0"/>
    <connection from="-1312268124" to="1312268124" fromLane="0" toLane="0"/>

    <connection from="-1312268125" to="1312268123#2" fromLane="0" toLane="0"/>
    <connection from="-1312268125" to="-1312268123#1" fromLane="0" toLane="0"/>
    <connection from="-1312268125" to="1312268125" fromLane="0" toLane="0"/>

    <connection from="-1312268126#0" to="-1312268123#0" fromLane="0" toLane="0"/>
    <connection from="-1312268126#0" to="1312268123#1" fromLane="0" toLane="0"/>
    <connection from="-1312268126#0" to="1312268126#0" fromLane="0" toLane="0"/>

    <connection from="-1312268126#1" to="1312268127" fromLane="0" toLane="0"/>
    <connection from="-1312268126#1" to="-1312268126#0" fromLane="0" toLane="0"/>
    <connection from="-1312268126#1" to="1312268126#1" fromLane="0" toLane="0"/>

    <connection from="-1312268127" to="-1312268126#0" fromLane="0" toLane="0"/>
    <connection from="-1312268127" to="1312268126#1" fromLane="0" toLane="0"/>
    <connection from="-1312268127" to="1312268127" fromLane="0" toLane="0"/>

    <connection from="-1312268128#0" to="-1274749359#1" fromLane="0" toLane="0"/>
    <connection from="-1312268128#0" to="1274749359#2" fromLane="0" toLane="0"/>
    <connection from="-1312268128#0" to="1312268128#0" fromLane="0" toLane="0"/>

    <connection from="-1312268128#1" to="-1312268128#0" fromLane="0" toLane="0"/>
    <connection from="-1312268128#1" to="1312268129" fromLane="0" toLane="0"/>
    <connection from="-1312268128#1" to="1312268128#1" fromLane="0" toLane="0"/>

    <connection from="-1312268129" to="1312268128#1" fromLane="0" toLane="0"/>
    <connection from="-1312268129" to="-1312268128#0" fromLane="0" toLane="0"/>
    <connection from="-1312268129" to="1312268129" fromLane="0" toLane="0"/>

    <connection from="-1312268130#0" to="-1274749359#0" fromLane="0" toLane="0"/>
    <connection from="-1312268130#0" to="1274749359#1" fromLane="0" toLane="0"/>
    <connection from="-1312268130#0" to="1312268130#0" fromLane="0" toLane="0"/>

    <connection from="-1312268130#1" to="-1312268130#0" fromLane="0" toLane="0"/>
    <connection from="-1312268130#1" to="1312268131" fromLane="0" toLane="0"/>
    <connection from="-1312268130#1" to="1312268130#1" fromLane="0" toLane="0"/>

    <connection from="-1312268131" to="1312268130#1" fromLane="0" toLane="0"/>
    <connection from="-1312268131" to="-1312268130#0" fromLane="0" toLane="0"/>
    <connection from="-1312268131" to="1312268131" fromLane="0" toLane="0"/>

    <connection from="-1312268132#0" to="620945896#1" fromLane="0" toLane="0"/>
    <connection from="-1312268132#0" to="-620945896#0" fromLane="0" toLane="0"/>
    <connection from="-1312268132#0" to="1312268132#0" fromLane="0" toLane="0"/>

    <connection from="-1312268132#1" to="1312268133" fromLane="0" toLane="0"/>
    <connection from="-1312268132#1" to="-1312268132#0" fromLane="0" toLane="0"/>
    <connection from="-1312268132#1" to="1312268132#1" fromLane="0" toLane="0"/>

    <connection from="-1312268133" to="-1312268132#0" fromLane="0" toLane="0"/>
    <connection from="-1312268133" to="1312268132#1" fromLane="0" toLane="0"/>
    <connection from="-1312268133" to="1312268133" fromLane="0" toLane="0"/>

    <connection from="-1312268134#0" to="620945896#2" fromLane="0" toLane="0"/>
    <connection from="-1312268134#0" to="-620945896#1" fromLane="0" toLane="0"/>
    <connection from="-1312268134#0" to="1312268134#0" fromLane="0" toLane="0"/>

    <connection from="-1312268134#1" to="-1312268134#0" fromLane="0" toLane="0"/>
    <connection from="-1312268134#1" to="-1312268168" fromLane="0" toLane="0"/>
    <connection from="-1312268134#1" to="1312268134#1" fromLane="0" toLane="0"/>

    <connection from="-1312268134#2" to="-1312268134#1" fromLane="0" toLane="0"/>
    <connection from="-1312268134#2" to="1312268166#0" fromLane="0" toLane="0"/>
    <connection from="-1312268134#2" to="1312268134#2" fromLane="0" toLane="0"/>

    <connection from="-1312268134#3" to="-1312268134#2" fromLane="0" toLane="0"/>
    <connection from="-1312268134#3" to="1314413904" fromLane="0" toLane="0"/>
    <connection from="-1312268134#3" to="1314413899#0" fromLane="0" toLane="0"/>
    <connection from="-1312268134#3" to="1312268134#3" fromLane="0" toLane="0"/>

    <connection from="-1312268134#4" to="1314413905" fromLane="0" toLane="0"/>
    <connection from="-1312268134#4" to="-1312268134#3" fromLane="0" toLane="0"/>
    <connection from="-1312268134#4" to="1312268134#4" fromLane="0" toLane="0"/>

    <connection from="-1312268148#0" to="1312268148#0" fromLane="0" toLane="0"/>

    <connection from="-1312268149" to="-1312268148#0" fromLane="0" toLane="0"/>
    <connection from="-1312268149" to="1312268151" fromLane="0" toLane="0"/>
    <connection from="-1312268149" to="1312268148#1" fromLane="0" toLane="0"/>

    <connection from="-1312268151" to="1312268148#1" fromLane="0" toLane="0"/>
    <connection from="-1312268151" to="-1312268148#0" fromLane="0" toLane="0"/>
    <connection from="-1312268151" to="1312268151" fromLane="0" toLane="0"/>

    <connection from="-1312268157" to="1312268157" fromLane="0" toLane="0"/>

    <connection from="-1312268158" to="311264111#1" fromLane="0" toLane="0"/>
    <connection from="-1312268158" to="-311264111#0" fromLane="0" toLane="0"/>
    <connection from="-1312268158" to="1312268158" fromLane="0" toLane="0"/>

    <connection from="-1312268159#0" to="801875603#5" fromLane="0" toLane="0"/>
    <connection from="-1312268159#0" to="-801875603#4" fromLane="0" toLane="0"/>
    <connection from="-1312268159#0" to="1312268159#0" fromLane="0" toLane="0"/>

    <connection from="-1312268159#1" to="-1312268159#0" fromLane="0" toLane="0"/>
    <connection from="-1312268159#1" to="1312268160#0" fromLane="0" toLane="0"/>
    <connection from="-1312268159#1" to="1312268159#1" fromLane="0" toLane="0"/>

    <connection from="-1312268160#0" to="1312268159#1" fromLane="0" toLane="0"/>
    <connection from="-1312268160#0" to="-1312268159#0" fromLane="0" toLane="0"/>
    <connection from="-1312268160#0" to="1312268160#0" fromLane="0" toLane="0"/>

    <connection from="-1312268160#1" to="-1312268163" fromLane="0" toLane="0"/>
    <connection from="-1312268160#1" to="-1312268160#0" fromLane="0" toLane="0"/>
    <connection from="-1312268160#1" to="1312268160#1" fromLane="0" toLane="0"/>

    <connection from="-1312268160#2" to="1312268162#0" fromLane="0" toLane="0"/>
    <connection from="-1312268160#2" to="-1312268160#1" fromLane="0" toLane="0"/>
    <connection from="-1312268160#2" to="1312268160#2" fromLane="0" toLane="0"/>

    <connection from="-1312268160#3" to="1312268161" fromLane="0" toLane="0"/>
    <connection from="-1312268160#3" to="-1312268160#2" fromLane="0" toLane="0"/>
    <connection from="-1312268160#3" to="1312268160#3" fromLane="0" toLane="0"/>

    <connection from="-1312268161" to="-1312268160#2" fromLane="0" toLane="0"/>
    <connection from="-1312268161" to="1312268160#3" fromLane="0" toLane="0"/>
    <connection from="-1312268161" to="1312268161" fromLane="0" toLane="0"/>

    <connection from="-1312268162#0" to="-1312268160#1" fromLane="0" toLane="0"/>
    <connection from="-1312268162#0" to="1312268160#2" fromLane="0" toLane="0"/>
    <connection from="-1312268162#0" to="1312268162#0" fromLane="0" toLane="0"/>

    <connection from="-1312268162#1" to="1312268163" fromLane="0" toLane="0"/>
    <connection from="-1312268162#1" to="-1312268162#0" fromLane="0" toLane="0"/>
    <connection from="-1312268162#1" to="1312268162#1" fromLane="0" toLane="0"/>

    <connection from="-1312268162#2" to="-1312268171#2" fromLane="0" toLane="0"/>
    <connection from="-1312268162#2" to="-1312268162#1" fromLane="0" toLane="0"/>
    <connection from="-1312268162#2" to="1312268162#2" fromLane="0" toLane="0"/>

    <connection from="-1312268162#3" to="-1312268172" fromLane="0" toLane="0"/>
    <connection from="-1312268162#3" to="-1312268162#2" fromLane="0" toLane="0"/>
    <connection from="-1312268162#3" to="1312268162#3" fromLane="0" toLane="0"/>

    <connection from="-1312268163" to="-1312268162#0" fromLane="0" toLane="0"/>
    <connection from="-1312268163" to="1312268162#1" fromLane="0" toLane="0"/>
    <connection from="-1312268163" to="1312268163" fromLane="0" toLane="0"/>

    <connection from="-1312268164" to="-1312268162#3" fromLane="0" toLane="0"/>
    <connection from="-1312268164" to="-1312268161" fromLane="0" toLane="0"/>
    <connection from="-1312268164" to="1312268164" fromLane="0" toLane="0"/>

    <connection from="-1312268165" to="1312268165" fromLane="0" toLane="0"/>

    <connection from="-1312268166#0" to="1312268134#2" fromLane="0" toLane="0"/>
    <connection from="-1312268166#0" to="-1312268134#1" fromLane="0" toLane="0"/>
    <connection from="-1312268166#0" to="1312268166#0" fromLane="0" toLane="0"/>

    <connection from="-1312268166#1" to="1312268167" fromLane="0" toLane="0"/>
    <connection from="-1312268166#1" to="-1312268166#0" fromLane="0" toLane="0"/>
    <connection from="-1312268166#1" to="1312268166#1" fromLane="0" toLane="0"/>

    <connection from="-1312268167" to="-1312268166#0" fromLane="0" toLane="0"/>
    <connection from="-1312268167" to="1312268166#1" fromLane="0" toLane="0"/>
    <connection from="-1312268167" to="1312268167" fromLane="0" toLane="0"/>

    <connection from="-1312268168" to="1312268168" fromLane="0" toLane="0"/>

    <connection from="-1312268169" to="251750366#2" fromLane="0" toLane="0"/>
    <connection from="-1312268169" to="-251750366#1" fromLane="0" toLane="0"/>
    <connection from="-1312268169" to="1312268169" fromLane="0" toLane="0"/>

    <connection from="-1312268170" to="1312268170" fromLane="0" toLane="0"/>

    <connection from="-1312268171#0" to="620945896#4" fromLane="0" toLane="0"/>
    <connection from="-1312268171#0" to="-830270080" fromLane="0" toLane="0"/>
    <connection from="-1312268171#0" to="-620945896#3" fromLane="0" toLane="0"/>
    <connection from="-1312268171#0" to="1312268171#0" fromLane="0" toLane="0"/>

    <connection from="-1312268171#1" to="-1312268171#0" fromLane="0" toLane="0"/>
    <connection from="-1312268171#1" to="1312268173" fromLane="0" toLane="0"/>
    <connection from="-1312268171#1" to="1312268171#1" fromLane="0" toLane="0"/>

    <connection from="-1312268171#2" to="1312268172" fromLane="0" toLane="0"/>
    <connection from="-1312268171#2" to="-1312268171#1" fromLane="0" toLane="0"/>
    <connection from="-1312268171#2" to="1312268171#2" fromLane="0" toLane="0"/>

    <connection from="-1312268172" to="-1312268171#1" fromLane="0" toLane="0"/>
    <connection from="-1312268172" to="1312268171#2" fromLane="0" toLane="0"/>
    <connection from="-1312268172" to="1312268172" fromLane="0" toLane="0"/>

    <connection from="-1312268173" to="1312268171#1" fromLane="0" toLane="0"/>
    <connection from="-1312268173" to="-1312268171#0" fromLane="0" toLane="0"/>
    <connection from="-1312268173" to="1312268173" fromLane="0" toLane="0"/>

    <connection from="-1314413870" to="1314413870" fromLane="0" toLane="0"/>

    <connection from="-1314413871#0" to="916761965#4" fromLane="0" toLane="0"/>
    <connection from="-1314413871#0" to="-916761965#3" fromLane="0" toLane="0"/>
    <connection from="-1314413871#0" to="1314413871#0" fromLane="0" toLane="0"/>

    <connection from="-1314413871#1" to="1314413873" fromLane="0" toLane="0"/>
    <connection from="-1314413871#1" to="-1314413871#0" fromLane="0" toLane="0"/>
    <connection from="-1314413871#1" to="1314413871#1" fromLane="0" toLane="0"/>

    <connection from="-1314413872" to="-956669866#4" fromLane="0" toLane="0"/>
    <connection from="-1314413872" to="956669866#5" fromLane="0" toLane="0"/>
    <connection from="-1314413872" to="-1314413871#1" fromLane="0" toLane="0"/>
    <connection from="-1314413872" to="1314413872" fromLane="0" toLane="0"/>

    <connection from="-1314413873" to="-1314413871#0" fromLane="0" toLane="0"/>
    <connection from="-1314413873" to="1314413871#1" fromLane="0" toLane="0"/>
    <connection from="-1314413873" to="1314413873" fromLane="0" toLane="0"/>

    <connection from="-1314413874" to="-916761965#2" fromLane="0" toLane="0"/>
    <connection from="-1314413874" to="916761965#3" fromLane="0" toLane="0"/>
    <connection from="-1314413874" to="1314413874" fromLane="0" toLane="0"/>

    <connection from="-1314413875" to="-956669866#2" fromLane="0" toLane="0"/>
    <connection from="-1314413875" to="956669866#3" fromLane="0" toLane="0"/>
    <connection from="-1314413875" to="1314413875" fromLane="0" toLane="0"/>

    <connection from="-1314413876#0" to="-956669866#3" fromLane="0" toLane="0"/>
    <connection from="-1314413876#0" to="956669866#4" fromLane="0" toLane="0"/>
    <connection from="-1314413876#0" to="1314413876#0" fromLane="0" toLane="0"/>

    <connection from="-1314413876#1" to="-1314413876#0" fromLane="0" toLane="0"/>
    <connection from="-1314413876#1" to="1314413877" fromLane="0" toLane="0"/>
    <connection from="-1314413876#1" to="1314413876#1" fromLane="0" toLane="0"/>

    <connection from="-1314413877" to="1314413876#1" fromLane="0" toLane="0"/>
    <connection from="-1314413877" to="-1314413876#0" fromLane="0" toLane="0"/>
    <connection from="-1314413877" to="1314413877" fromLane="0" toLane="0"/>

    <connection from="-1314413878" to="956669866#2" fromLane="0" toLane="0"/>
    <connection from="-1314413878" to="-956669866#1" fromLane="0" toLane="0"/>
    <connection from="-1314413878" to="1314413878" fromLane="0" toLane="0"/>

    <connection from="-1314413879" to="-956669866#0" fromLane="0" toLane="0"/>
    <connection from="-1314413879" to="956669866#1" fromLane="0" toLane="0"/>
    <connection from="-1314413879" to="1314413879" fromLane="0" toLane="0"/>

    <connection from="-1314413880" to="-736702743#2" fromLane="0" toLane="0"/>
    <connection from="-1314413880" to="736702743#3" fromLane="0" toLane="0"/>
    <connection from="-1314413880" to="1314413880" fromLane="0" toLane="0"/>

    <connection from="-1314413882#0" to="596889247#8" fromLane="0" toLane="0"/>
    <connection from="-1314413882#0" to="-596889247#7" fromLane="0" toLane="0"/>
    <connection from="-1314413882#0" to="1314413881" fromLane="0" toLane="0"/>

    <connection from="-1314413883#0" to="-1314413885#0" fromLane="0" toLane="0"/>
    <connection from="-1314413883#0" to="-1314413882#0" fromLane="0" toLane="0"/>
    <connection from="-1314413883#0" to="1314413885#1" fromLane="0" toLane="0"/>
    <connection from="-1314413883#0" to="1314413882#1" fromLane="0" toLane="0"/>

    <connection from="-1314413883#1" to="757219356#1" fromLane="0" toLane="0"/>
    <connection from="-1314413883#1" to="-1314413883#0" fromLane="0" toLane="0"/>
    <connection from="-1314413883#1" to="-757219356#0" fromLane="0" toLane="0"/>
    <connection from="-1314413883#1" to="1314413883#1" fromLane="0" toLane="0"/>

    <connection from="-1314413885#0" to="-795605759#0" fromLane="0" toLane="0"/>
    <connection from="-1314413885#0" to="795605759#1" fromLane="0" toLane="0"/>
    <connection from="-1314413885#0" to="1314413885#0" fromLane="0" toLane="0"/>

    <connection from="-1314413885#1" to="1314413882#1" fromLane="0" toLane="0"/>
    <connection from="-1314413885#1" to="-1314413885#0" fromLane="0" toLane="0"/>
    <connection from="-1314413885#1" to="-1314413882#0" fromLane="0" toLane="0"/>
    <connection from="-1314413885#1" to="1314413885#1" fromLane="0" toLane="0"/>

    <connection from="-1314413898" to="-596889247#0" fromLane="0" toLane="0"/>
    <connection from="-1314413898" to="596889247#1" fromLane="0" toLane="0"/>
    <connection from="-1314413898" to="1314413898" fromLane="0" toLane="0"/>

    <connection from="-1314413899#0" to="1312268134#3" fromLane="0" toLane="0"/>
    <connection from="-1314413899#0" to="-1312268134#2" fromLane="0" toLane="0"/>
    <connection from="-1314413899#0" to="1314413904" fromLane="0" toLane="0"/>
    <connection from="-1314413899#0" to="1314413899#0" fromLane="0" toLane="0"/>

    <connection from="-1314413899#1" to="-1314413899#0" fromLane="0" toLane="0"/>
    <connection from="-1314413899#1" to="-1314413903" fromLane="0" toLane="0"/>
    <connection from="-1314413899#1" to="1314413899#1" fromLane="0" toLane="0"/>

    <connection from="-1314413900" to="-1314413899#1" fromLane="0" toLane="0"/>
    <connection from="-1314413900" to="1314413902#0" fromLane="0" toLane="0"/>
    <connection from="-1314413900" to="1314413901" fromLane="0" toLane="0"/>

    <connection from="-1314413902#0" to="1314413901" fromLane="0" toLane="0"/>
    <connection from="-1314413902#0" to="-1314413899#1" fromLane="0" toLane="0"/>
    <connection from="-1314413902#0" to="1314413902#0" fromLane="0" toLane="0"/>

    <connection from="-1314413902#1" to="-1314413902#0" fromLane="0" toLane="0"/>
    <connection from="-1314413902#1" to="1314413903" fromLane="0" toLane="0"/>
    <connection from="-1314413902#1" to="1314413902#1" fromLane="0" toLane="0"/>

    <connection from="-1314413903" to="1314413902#1" fromLane="0" toLane="0"/>
    <connection from="-1314413903" to="-1314413902#0" fromLane="0" toLane="0"/>
    <connection from="-1314413903" to="1314413903" fromLane="0" toLane="0"/>

    <connection from="-1314413904" to="1314413899#0" fromLane="0" toLane="0"/>
    <connection from="-1314413904" to="1312268134#3" fromLane="0" toLane="0"/>
    <connection from="-1314413904" to="-1312268134#2" fromLane="0" toLane="0"/>
    <connection from="-1314413904" to="1314413904" fromLane="0" toLane="0"/>

    <connection from="-1314413905" to="-1312268134#3" fromLane="0" toLane="0"/>
    <connection from="-1314413905" to="1312268134#4" fromLane="0" toLane="0"/>
    <connection from="-1314413905" to="1314413905" fromLane="0" toLane="0"/>

    <connection from="-1314413906" to="596889247#3" fromLane="0" toLane="0"/>
    <connection from="-1314413906" to="-596889247#2" fromLane="0" toLane="0"/>
    <connection from="-1314413906" to="1314413906" fromLane="0" toLane="0"/>

    <connection from="-1314413907" to="620945897#1" fromLane="0" toLane="0"/>
    <connection from="-1314413907" to="-620945897#0" fromLane="0" toLane="0"/>
    <connection from="-1314413907" to="1314413907" fromLane="0" toLane="0"/>

    <connection from="-240191538#0" to="596889247#0" fromLane="0" toLane="0"/>
    <connection from="-240191538#0" to="-290364427#3" fromLane="0" toLane="0"/>
    <connection from="-240191538#0" to="290364427#4" fromLane="0" toLane="0"/>

    <connection from="-240191538#1" to="-240191538#0" fromLane="0" toLane="0"/>
    <connection from="-240191538#1" to="1312268123#0" fromLane="0" toLane="0"/>
    <connection from="-240191538#1" to="240191538#1" fromLane="0" toLane="0"/>

    <connection from="-240191538#2" to="-240191538#1" fromLane="0" toLane="0"/>
    <connection from="-240191538#2" to="-1274749359#2" fromLane="0" toLane="0"/>
    <connection from="-240191538#2" to="240191538#2" fromLane="0" toLane="0"/>

    <connection from="-250523005#0" to="250523005#0" fromLane="0" toLane="0"/>

    <connection from="-250523005#1" to="-956670123#2" fromLane="0" toLane="0"/>
    <connection from="-250523005#1" to="-250523005#0" fromLane="0" toLane="0"/>
    <connection from="-250523005#1" to="250523005#1" fromLane="0" toLane="0"/>

    <connection from="-250635319#1" to="-801337281" fromLane="0" toLane="0"/>
    <connection from="-250635319#1" to="1274749359#0" fromLane="0" toLane="0"/>
    <connection from="-250635319#1" to="-250523005#1" fromLane="0" toLane="0"/>
    <connection from="-250635319#1" to="250635319#1" fromLane="0" toLane="0"/>

    <connection from="-251742510#0" to="596889247#4" fromLane="0" toLane="0"/>
    <connection from="-251742510#0" to="-596889247#3" fromLane="0" toLane="0"/>
    <connection from="-251742510#0" to="251742510#0" fromLane="0" toLane="0"/>

    <connection from="-251742510#1" to="-251742510#0" fromLane="0" toLane="0"/>
    <connection from="-251742510#1" to="956554409" fromLane="0" toLane="0"/>
    <connection from="-251742510#1" to="251742510#1" fromLane="0" toLane="0"/>

    <connection from="-251750366#0" to="620945897#0" fromLane="0" toLane="0"/>
    <connection from="-251750366#0" to="-809006623" fromLane="0" toLane="0"/>
    <connection from="-251750366#0" to="251750366#0" fromLane="0" toLane="0"/>

    <connection from="-251750366#1" to="1116026256" fromLane="0" toLane="0"/>
    <connection from="-251750366#1" to="-251750366#0" fromLane="0" toLane="0"/>
    <connection from="-251750366#1" to="251750366#1" fromLane="0" toLane="0"/>

    <connection from="-251750366#2" to="-251750366#1" fromLane="0" toLane="0"/>
    <connection from="-251750366#2" to="1312268169" fromLane="0" toLane="0"/>
    <connection from="-251750366#2" to="251750366#2" fromLane="0" toLane="0"/>

    <connection from="-251750366#3" to="956615114#0" fromLane="0" toLane="0"/>
    <connection from="-251750366#3" to="-251750366#2" fromLane="0" toLane="0"/>
    <connection from="-251750366#3" to="251750366#3" fromLane="0" toLane="0"/>

    <connection from="-251750366#4" to="251750367" fromLane="0" toLane="0"/>
    <connection from="-251750366#4" to="-251750366#3" fromLane="0" toLane="0"/>
    <connection from="-251750366#4" to="251750366#4" fromLane="0" toLane="0"/>

    <connection from="-251750366#6" to="-1312268170" fromLane="0" toLane="0"/>
    <connection from="-251750366#6" to="-251750366#4" fromLane="0" toLane="0"/>
    <connection from="-251750366#6" to="830270079" fromLane="0" toLane="0"/>
    <connection from="-251750366#6" to="251750366#6" fromLane="0" toLane="0"/>

    <connection from="-290364427#0" to="290364427#0" fromLane="0" toLane="0"/>

    <connection from="-290364427#1" to="-795605759#1" fromLane="0" toLane="0"/>
    <connection from="-290364427#1" to="-290364427#0" fromLane="0" toLane="0"/>
    <connection from="-290364427#1" to="290364427#1" fromLane="0" toLane="0"/>

    <connection from="-290364427#2" to="-290364427#1" fromLane="0" toLane="0"/>
    <connection from="-290364427#2" to="736702743#0" fromLane="0" toLane="0"/>
    <connection from="-290364427#2" to="290364427#2" fromLane="0" toLane="0"/>

    <connection from="-290364427#3" to="-596889247#8" fromLane="0" toLane="0"/>
    <connection from="-290364427#3" to="-290364427#2" fromLane="0" toLane="0"/>
    <connection from="-290364427#3" to="290364427#3" fromLane="0" toLane="0"/>

    <connection from="-311264111#0" to="956670966" fromLane="0" toLane="0"/>

    <connection from="-311264111#1" to="-311264111#0" fromLane="0" toLane="0"/>
    <connection from="-311264111#1" to="1312268158" fromLane="0" toLane="0"/>
    <connection from="-311264111#1" to="311264111#1" fromLane="0" toLane="0"/>

    <connection from="-561717020#0" to="561717020#0" fromLane="0" toLane="0"/>

    <connection from="-561717020#1" to="-956668902" fromLane="0" toLane="0"/>
    <connection from="-561717020#1" to="-561717020#0" fromLane="0" toLane="0"/>
    <connection from="-561717020#1" to="561717020#1" fromLane="0" toLane="0"/>

    <connection from="-596889246" to="596889247#6" fromLane="0" toLane="0"/>
    <connection from="-596889246" to="596889246" fromLane="0" toLane="0"/>
    <connection from="-596889246" to="-596889247#5" fromLane="0" toLane="0"/>

    <connection from="-596889247#0" to="-290364427#3" fromLane="0" toLane="0"/>
    <connection from="-596889247#0" to="290364427#4" fromLane="0" toLane="0"/>
    <connection from="-596889247#0" to="596889247#0" fromLane="0" toLane="0"/>

    <connection from="-596889247#1" to="1314413898" fromLane="0" toLane="0"/>
    <connection from="-596889247#1" to="-596889247#0" fromLane="0" toLane="0"/>
    <connection from="-596889247#1" to="596889247#1" fromLane="0" toLane="0"/>

    <connection from="-596889247#2" to="-596889247#1" fromLane="0" toLane="0"/>
    <connection from="-596889247#2" to="-620945897#1" fromLane="0" toLane="0"/>
    <connection from="-596889247#2" to="596889247#2" fromLane="0" toLane="0"/>

    <connection from="-596889247#3" to="-596889247#2" fromLane="0" toLane="0"/>
    <connection from="-596889247#3" to="1314413906" fromLane="0" toLane="0"/>
    <connection from="-596889247#3" to="596889247#3" fromLane="0" toLane="0"/>

    <connection from="-596889247#4" to="-596889247#3" fromLane="0" toLane="0"/>
    <connection from="-596889247#4" to="251742510#0" fromLane="0" toLane="0"/>
    <connection from="-596889247#4" to="596889247#4" fromLane="0" toLane="0"/>

    <connection from="-596889247#5" to="-596889247#4" fromLane="0" toLane="0"/>
    <connection from="-596889247#5" to="596889247#5" fromLane="0" toLane="0"/>
    <connection from="-596889247#5" to="-596889246" fromLane="0" toLane="0"/>

    <connection from="-596889247#6" to="596889246" fromLane="0" toLane="0"/>
    <connection from="-596889247#6" to="-596889247#5" fromLane="0" toLane="0"/>
    <connection from="-596889247#6" to="596889247#6" fromLane="0" toLane="0"/>

    <connection from="-596889247#7" to="-596889247#6" fromLane="0" toLane="0"/>
    <connection from="-596889247#7" to="956553914" fromLane="0" toLane="0"/>
    <connection from="-596889247#7" to="596889247#7" fromLane="0" toLane="0"/>

    <connection from="-596889247#8" to="-596889247#7" fromLane="0" toLane="0"/>
    <connection from="-596889247#8" to="1314413881" fromLane="0" toLane="0"/>
    <connection from="-596889247#8" to="596889247#8" fromLane="0" toLane="0"/>

    <connection from="-620945896#0" to="809006623" fromLane="0" toLane="0"/>
    <connection from="-620945896#0" to="-240191538#2" fromLane="0" toLane="0"/>
    <connection from="-620945896#0" to="801336201#0" fromLane="0" toLane="0"/>
    <connection from="-620945896#0" to="620945896#0" fromLane="0" toLane="0"/>

    <connection from="-620945896#1" to="-620945896#0" fromLane="0" toLane="0"/>
    <connection from="-620945896#1" to="1312268132#0" fromLane="0" toLane="0"/>
    <connection from="-620945896#1" to="620945896#1" fromLane="0" toLane="0"/>

    <connection from="-620945896#2" to="-620945896#1" fromLane="0" toLane="0"/>
    <connection from="-620945896#2" to="1312268134#0" fromLane="0" toLane="0"/>
    <connection from="-620945896#2" to="620945896#2" fromLane="0" toLane="0"/>

    <connection from="-620945896#3" to="-620945896#2" fromLane="0" toLane="0"/>
    <connection from="-620945896#3" to="-801875603#6" fromLane="0" toLane="0"/>
    <connection from="-620945896#3" to="620945896#3" fromLane="0" toLane="0"/>

    <connection from="-620945896#4" to="-830270080" fromLane="0" toLane="0"/>
    <connection from="-620945896#4" to="-620945896#3" fromLane="0" toLane="0"/>
    <connection from="-620945896#4" to="1312268171#0" fromLane="0" toLane="0"/>
    <connection from="-620945896#4" to="620945896#4" fromLane="0" toLane="0"/>

    <connection from="-620945896#5" to="-620945896#4" fromLane="0" toLane="0"/>
    <connection from="-620945896#5" to="801875603#0" fromLane="0" toLane="0"/>
    <connection from="-620945896#5" to="620945896#5" fromLane="0" toLane="0"/>

    <connection from="-620945897#0" to="-809006623" fromLane="0" toLane="0"/>
    <connection from="-620945897#0" to="251750366#0" fromLane="0" toLane="0"/>
    <connection from="-620945897#0" to="620945897#0" fromLane="0" toLane="0"/>

    <connection from="-620945897#1" to="-620945897#0" fromLane="0" toLane="0"/>
    <connection from="-620945897#1" to="1314413907" fromLane="0" toLane="0"/>
    <connection from="-620945897#1" to="620945897#1" fromLane="0" toLane="0"/>

    <connection from="-736702743#0" to="290364427#2" fromLane="0" toLane="0"/>
    <connection from="-736702743#0" to="-290364427#1" fromLane="0" toLane="0"/>
    <connection from="-736702743#0" to="736702743#0" fromLane="0" toLane="0"/>

    <connection from="-736702743#1" to="-736702743#0" fromLane="0" toLane="0"/>

    <connection from="-736702743#2" to="-1312268120#2" fromLane="0" toLane="0"/>
    <connection from="-736702743#2" to="-736702743#1" fromLane="0" toLane="0"/>
    <connection from="-736702743#2" to="736702743#2" fromLane="0" toLane="0"/>

    <connection from="-736702743#3" to="1314413880" fromLane="0" toLane="0"/>
    <connection from="-736702743#3" to="-736702743#2" fromLane="0" toLane="0"/>
    <connection from="-736702743#3" to="736702743#3" fromLane="0" toLane="0"/>

    <connection from="-736702744" to="-736702743#3" fromLane="0" toLane="0"/>
    <connection from="-736702744" to="-801313290" fromLane="0" toLane="0"/>
    <connection from="-736702744" to="736702743#4" fromLane="0" toLane="0"/>

    <connection from="-736702745" to="956669866#0" fromLane="0" toLane="0"/>
    <connection from="-736702745" to="-736702744" fromLane="0" toLane="0"/>
    <connection from="-736702745" to="736702745" fromLane="0" toLane="0"/>

    <connection from="-750405609" to="-251750366#3" fromLane="0" toLane="0"/>
    <connection from="-750405609" to="251750366#4" fromLane="0" toLane="0"/>
    <connection from="-750405609" to="251750367" fromLane="0" toLane="0"/>

    <connection from="-757219356#0" to="757219356#0" fromLane="0" toLane="0"/>

    <connection from="-757219356#1" to="-1314413883#0" fromLane="0" toLane="0"/>
    <connection from="-757219356#1" to="-757219356#0" fromLane="0" toLane="0"/>
    <connection from="-757219356#1" to="1314413883#1" fromLane="0" toLane="0"/>
    <connection from="-757219356#1" to="757219356#1" fromLane="0" toLane="0"/>

    <connection from="-757219356#2" to="854277421" fromLane="0" toLane="0"/>
    <connection from="-757219356#2" to="-757219356#1" fromLane="0" toLane="0"/>
    <connection from="-757219356#2" to="757219356#2" fromLane="0" toLane="0"/>

    <connection from="-795605759#0" to="-757219356#1" fromLane="0" toLane="0"/>
    <connection from="-795605759#0" to="757219356#2" fromLane="0" toLane="0"/>
    <connection from="-795605759#0" to="854277421" fromLane="0" toLane="0"/>

    <connection from="-795605759#1" to="1314413885#0" fromLane="0" toLane="0"/>
    <connection from="-795605759#1" to="-795605759#0" fromLane="0" toLane="0"/>
    <connection from="-795605759#1" to="795605759#1" fromLane="0" toLane="0"/>

    <connection from="-801313290" to="801313288" fromLane="0" toLane="0"/>

    <connection from="-801336201#0" to="620945896#0" fromLane="0" toLane="0"/>
    <connection from="-801336201#0" to="809006623" fromLane="0" toLane="0"/>
    <connection from="-801336201#0" to="-240191538#2" fromLane="0" toLane="0"/>
    <connection from="-801336201#0" to="801336201#0" fromLane="0" toLane="0"/>

    <connection from="-801337281" to="-1314413900" fromLane="0" toLane="0"/>
    <connection from="-801337281" to="-801336201#0" fromLane="0" toLane="0"/>
    <connection from="-801337281" to="801336201#1" fromLane="0" toLane="0"/>

    <connection from="-801875603#0" to="620945896#5" fromLane="0" toLane="0"/>
    <connection from="-801875603#0" to="-620945896#4" fromLane="0" toLane="0"/>
    <connection from="-801875603#0" to="801875603#0" fromLane="0" toLane="0"/>

    <connection from="-801875603#1" to="-1083437763" fromLane="0" toLane="0"/>
    <connection from="-801875603#1" to="-801875603#0" fromLane="0" toLane="0"/>
    <connection from="-801875603#1" to="801875603#1" fromLane="0" toLane="0"/>

    <connection from="-801875603#2" to="1083437762" fromLane="0" toLane="0"/>
    <connection from="-801875603#2" to="-801875603#1" fromLane="0" toLane="0"/>
    <connection from="-801875603#2" to="801875603#2" fromLane="0" toLane="0"/>

    <connection from="-801875603#3" to="-1312268149" fromLane="0" toLane="0"/>
    <connection from="-801875603#3" to="-801875603#2" fromLane="0" toLane="0"/>
    <connection from="-801875603#3" to="801875603#3" fromLane="0" toLane="0"/>

    <connection from="-801875603#4" to="-801875603#3" fromLane="0" toLane="0"/>
    <connection from="-801875603#4" to="-1312268164" fromLane="0" toLane="0"/>
    <connection from="-801875603#4" to="801875603#4" fromLane="0" toLane="0"/>

    <connection from="-801875603#5" to="-801875603#4" fromLane="0" toLane="0"/>
    <connection from="-801875603#5" to="1312268159#0" fromLane="0" toLane="0"/>
    <connection from="-801875603#5" to="801875603#5" fromLane="0" toLane="0"/>

    <connection from="-801875603#6" to="-801875603#5" fromLane="0" toLane="0"/>
    <connection from="-801875603#6" to="-1312268159#1" fromLane="0" toLane="0"/>
    <connection from="-801875603#6" to="801875603#6" fromLane="0" toLane="0"/>

    <connection from="-809006623" to="-240191538#2" fromLane="0" toLane="0"/>
    <connection from="-809006623" to="801336201#0" fromLane="0" toLane="0"/>
    <connection from="-809006623" to="620945896#0" fromLane="0" toLane="0"/>
    <connection from="-809006623" to="809006623" fromLane="0" toLane="0"/>

    <connection from="-830270079" to="251750366#6" fromLane="0" toLane="0"/>
    <connection from="-830270079" to="-1312268170" fromLane="0" toLane="0"/>
    <connection from="-830270079" to="-251750366#4" fromLane="0" toLane="0"/>
    <connection from="-830270079" to="830270079" fromLane="0" toLane="0"/>

    <connection from="-830270080" to="-830270081" fromLane="0" toLane="0"/>

    <connection from="-830270081" to="-830270079" fromLane="0" toLane="0"/>

    <connection from="-916761965#0" to="916761965#0" fromLane="0" toLane="0"/>

    <connection from="-916761965#1" to="-916761965#0" fromLane="0" toLane="0"/>
    <connection from="-916761965#1" to="956670123#0" fromLane="0" toLane="0"/>
    <connection from="-916761965#1" to="916761965#1" fromLane="0" toLane="0"/>

    <connection from="-916761965#2" to="-916761965#1" fromLane="0" toLane="0"/>
    <connection from="-916761965#2" to="-1312265157#1" fromLane="0" toLane="0"/>
    <connection from="-916761965#2" to="916761965#2" fromLane="0" toLane="0"/>

    <connection from="-916761965#3" to="1314413874" fromLane="0" toLane="0"/>
    <connection from="-916761965#3" to="-916761965#2" fromLane="0" toLane="0"/>
    <connection from="-916761965#3" to="916761965#3" fromLane="0" toLane="0"/>

    <connection from="-916761965#4" to="-916761965#3" fromLane="0" toLane="0"/>
    <connection from="-916761965#4" to="1314413871#0" fromLane="0" toLane="0"/>
    <connection from="-916761965#4" to="916761965#4" fromLane="0" toLane="0"/>

    <connection from="-916761966" to="916761966" fromLane="0" toLane="0"/>

    <connection from="-923060265#0" to="923060265#0" fromLane="0" toLane="0"/>

    <connection from="-923060265#1" to="-956669866#5" fromLane="0" toLane="0"/>
    <connection from="-923060265#1" to="-923060265#0" fromLane="0" toLane="0"/>
    <connection from="-923060265#1" to="923060265#1" fromLane="0" toLane="0"/>

    <connection from="-956553914" to="596889247#7" fromLane="0" toLane="0"/>
    <connection from="-956553914" to="-596889247#6" fromLane="0" toLane="0"/>
    <connection from="-956553914" to="956553914" fromLane="0" toLane="0"/>

    <connection from="-956554408#0" to="251742510#1" fromLane="0" toLane="0"/>
    <connection from="-956554408#0" to="-251742510#0" fromLane="0" toLane="0"/>
    <connection from="-956554408#0" to="956554409" fromLane="0" toLane="0"/>

    <connection from="-956554408#1" to="-1312265152" fromLane="0" toLane="0"/>
    <connection from="-956554408#1" to="-956554408#0" fromLane="0" toLane="0"/>
    <connection from="-956554408#1" to="956554408#1" fromLane="0" toLane="0"/>

    <connection from="-956554408#2" to="-956554408#1" fromLane="0" toLane="0"/>
    <connection from="-956554408#2" to="-1116026256" fromLane="0" toLane="0"/>
    <connection from="-956554408#2" to="956554408#2" fromLane="0" toLane="0"/>

    <connection from="-956615113" to="-956554408#2" fromLane="0" toLane="0"/>
    <connection from="-956615113" to="-956615114#0" fromLane="0" toLane="0"/>
    <connection from="-956615113" to="956615114#1" fromLane="0" toLane="0"/>

    <connection from="-956615114#0" to="-251750366#2" fromLane="0" toLane="0"/>
    <connection from="-956615114#0" to="251750366#3" fromLane="0" toLane="0"/>
    <connection from="-956615114#0" to="956615114#0" fromLane="0" toLane="0"/>

    <connection from="-956668902" to="916761967" fromLane="0" toLane="0"/>

    <connection from="-956669866#0" to="-736702744" fromLane="0" toLane="0"/>
    <connection from="-956669866#0" to="736702745" fromLane="0" toLane="0"/>
    <connection from="-956669866#0" to="956669866#0" fromLane="0" toLane="0"/>

    <connection from="-956669866#1" to="1314413879" fromLane="0" toLane="0"/>
    <connection from="-956669866#1" to="-956669866#0" fromLane="0" toLane="0"/>
    <connection from="-956669866#1" to="956669866#1" fromLane="0" toLane="0"/>

    <connection from="-956669866#2" to="-956669866#1" fromLane="0" toLane="0"/>
    <connection from="-956669866#2" to="1314413878" fromLane="0" toLane="0"/>
    <connection from="-956669866#2" to="956669866#2" fromLane="0" toLane="0"/>

    <connection from="-956669866#3" to="1314413875" fromLane="0" toLane="0"/>
    <connection from="-956669866#3" to="-956669866#2" fromLane="0" toLane="0"/>
    <connection from="-956669866#3" to="956669866#3" fromLane="0" toLane="0"/>

    <connection from="-956669866#4" to="1314413876#0" fromLane="0" toLane="0"/>
    <connection from="-956669866#4" to="-956669866#3" fromLane="0" toLane="0"/>
    <connection from="-956669866#4" to="956669866#4" fromLane="0" toLane="0"/>

    <connection from="-956669866#5" to="-1314413871#1" fromLane="0" toLane="0"/>
    <connection from="-956669866#5" to="1314413872" fromLane="0" toLane="0"/>
    <connection from="-956669866#5" to="-956669866#4" fromLane="0" toLane="0"/>
    <connection from="-956669866#5" to="956669866#5" fromLane="0" toLane="0"/>

    <connection from="-956670123#0" to="916761965#1" fromLane="0" toLane="0"/>
    <connection from="-956670123#0" to="-916761965#0" fromLane="0" toLane="0"/>
    <connection from="-956670123#0" to="956670123#0" fromLane="0" toLane="0"/>

    <connection from="-956670123#1" to="956670654#0" fromLane="0" toLane="0"/>
    <connection from="-956670123#1" to="-956670123#0" fromLane="0" toLane="0"/>
    <connection from="-956670123#1" to="956670123#1" fromLane="0" toLane="0"/>

    <connection from="-956670123#2" to="-1312268128#1" fromLane="0" toLane="0"/>
    <connection from="-956670123#2" to="-956670123#1" fromLane="0" toLane="0"/>
    <connection from="-956670123#2" to="956670123#2" fromLane="0" toLane="0"/>

    <connection from="-956670654#0" to="-956670123#0" fromLane="0" toLane="0"/>
    <connection from="-956670654#0" to="956670123#1" fromLane="0" toLane="0"/>
    <connection from="-956670654#0" to="956670654#0" fromLane="0" toLane="0"/>

    <connection from="-956670654#1" to="1312265157#0" fromLane="0" toLane="0"/>
    <connection from="-956670654#1" to="-956670654#0" fromLane="0" toLane="0"/>
    <connection from="-956670654#1" to="956670654#1" fromLane="0" toLane="0"/>

    <connection from="-956671340" to="956671340" fromLane="0" toLane="0"/>

    <connection from="1083437762" to="311264111#0" fromLane="0" toLane="0"/>

    <connection from="1083437763" to="-801875603#0" fromLane="0" toLane="0"/>
    <connection from="1083437763" to="801875603#1" fromLane="0" toLane="0"/>
    <connection from="1083437763" to="-1083437763" fromLane="0" toLane="0"/>

    <connection from="1116026256" to="956554408#2" fromLane="0" toLane="0"/>
    <connection from="1116026256" to="-956554408#1" fromLane="0" toLane="0"/>
    <connection from="1116026256" to="-1116026256" fromLane="0" toLane="0"/>

    <connection from="1274749359#0" to="1274749359#1" fromLane="0" toLane="0"/>
    <connection from="1274749359#0" to="1312268130#0" fromLane="0" toLane="0"/>
    <connection from="1274749359#0" to="-1274749359#0" fromLane="0" toLane="0"/>

    <connection from="1274749359#1" to="1274749359#2" fromLane="0" toLane="0"/>
    <connection from="1274749359#1" to="1312268128#0" fromLane="0" toLane="0"/>
    <connection from="1274749359#1" to="-1274749359#1" fromLane="0" toLane="0"/>

    <connection from="1274749359#2" to="240191538#2" fromLane="0" toLane="0"/>
    <connection from="1274749359#2" to="-240191538#1" fromLane="0" toLane="0"/>
    <connection from="1274749359#2" to="-1274749359#2" fromLane="0" toLane="0"/>

    <connection from="1312265151" to="1312265154" fromLane="0" toLane="0"/>
    <connection from="1312265151" to="1312265153" fromLane="0" toLane="0"/>
    <connection from="1312265151" to="-1312265151" fromLane="0" toLane="0"/>

    <connection from="1312265153" to="-956554408#0" fromLane="0" toLane="0"/>
    <connection from="1312265153" to="956554408#1" fromLane="0" toLane="0"/>
    <connection from="1312265153" to="-1312265152" fromLane="0" toLane="0"/>

    <connection from="1312265154" to="-1312265154" fromLane="0" toLane="0"/>

    <connection from="1312265157#0" to="1312268116" fromLane="0" toLane="0"/>
    <connection from="1312265157#0" to="1312265157#1" fromLane="0" toLane="0"/>
    <connection from="1312265157#0" to="-1312265157#0" fromLane="0" toLane="0"/>

    <connection from="1312265157#1" to="916761965#2" fromLane="0" toLane="0"/>
    <connection from="1312265157#1" to="-916761965#1" fromLane="0" toLane="0"/>
    <connection from="1312265157#1" to="-1312265157#1" fromLane="0" toLane="0"/>

    <connection from="1312268116" to="-1312268116" fromLane="0" toLane="0"/>

    <connection from="1312268117#0" to="1312268118" fromLane="0" toLane="0"/>
    <connection from="1312268117#0" to="1312268117#1" fromLane="0" toLane="0"/>
    <connection from="1312268117#0" to="-1312268117#0" fromLane="0" toLane="0"/>

    <connection from="1312268117#1" to="1312268119#0" fromLane="0" toLane="0"/>
    <connection from="1312268117#1" to="1312268117#2" fromLane="0" toLane="0"/>
    <connection from="1312268117#1" to="-1312268117#1" fromLane="0" toLane="0"/>

    <connection from="1312268117#2" to="-1312268117#2" fromLane="0" toLane="0"/>

    <connection from="1312268118" to="-1312268118" fromLane="0" toLane="0"/>

    <connection from="1312268119#0" to="1312268120#0" fromLane="0" toLane="0"/>
    <connection from="1312268119#0" to="1312268119#1" fromLane="0" toLane="0"/>
    <connection from="1312268119#0" to="-1312268119#0" fromLane="0" toLane="0"/>

    <connection from="1312268119#1" to="-1312268119#1" fromLane="0" toLane="0"/>

    <connection from="1312268120#0" to="1312268121#1" fromLane="0" toLane="0"/>
    <connection from="1312268120#0" to="1312268122" fromLane="0" toLane="0"/>
    <connection from="1312268120#0" to="1312268120#1" fromLane="0" toLane="0"/>
    <connection from="1312268120#0" to="-1312268120#0" fromLane="0" toLane="0"/>

    <connection from="1312268120#1" to="-1312268122" fromLane="0" toLane="0"/>
    <connection from="1312268120#1" to="1312268120#2" fromLane="0" toLane="0"/>
    <connection from="1312268120#1" to="-1312268120#1" fromLane="0" toLane="0"/>

    <connection from="1312268120#2" to="-736702743#1" fromLane="0" toLane="0"/>
    <connection from="1312268120#2" to="736702743#2" fromLane="0" toLane="0"/>
    <connection from="1312268120#2" to="-1312268120#2" fromLane="0" toLane="0"/>

    <connection from="1312268121#1" to="-1312268121#1" fromLane="0" toLane="0"/>

    <connection from="1312268122" to="1312268120#2" fromLane="0" toLane="0"/>
    <connection from="1312268122" to="-1312268120#1" fromLane="0" toLane="0"/>
    <connection from="1312268122" to="-1312268122" fromLane="0" toLane="0"/>

    <connection from="1312268123#0" to="1312268123#1" fromLane="0" toLane="0"/>
    <connection from="1312268123#0" to="1312268126#0" fromLane="0" toLane="0"/>
    <connection from="1312268123#0" to="-1312268123#0" fromLane="0" toLane="0"/>

    <connection from="1312268123#1" to="1312268125" fromLane="0" toLane="0"/>
    <connection from="1312268123#1" to="1312268123#2" fromLane="0" toLane="0"/>
    <connection from="1312268123#1" to="-1312268123#1" fromLane="0" toLane="0"/>

    <connection from="1312268123#2" to="1312268123#3" fromLane="0" toLane="0"/>
    <connection from="1312268123#2" to="1312268124" fromLane="0" toLane="0"/>
    <connection from="1312268123#2" to="-1312268123#2" fromLane="0" toLane="0"/>

    <connection from="1312268123#3" to="-1312268123#3" fromLane="0" toLane="0"/>

    <connection from="1312268124" to="-1312268124" fromLane="0" toLane="0"/>

    <connection from="1312268125" to="-1312268125" fromLane="0" toLane="0"/>

    <connection from="1312268126#0" to="1312268126#1" fromLane="0" toLane="0"/>
    <connection from="1312268126#0" to="1312268127" fromLane="0" toLane="0"/>
    <connection from="1312268126#0" to="-1312268126#0" fromLane="0" toLane="0"/>

    <connection from="1312268126#1" to="-1312268126#1" fromLane="0" toLane="0"/>

    <connection from="1312268127" to="-1312268127" fromLane="0" toLane="0"/>

    <connection from="1312268128#0" to="1312268129" fromLane="0" toLane="0"/>
    <connection from="1312268128#0" to="1312268128#1" fromLane="0" toLane="0"/>
    <connection from="1312268128#0" to="-1312268128#0" fromLane="0" toLane="0"/>

    <connection from="1312268128#1" to="-956670123#1" fromLane="0" toLane="0"/>
    <connection from="1312268128#1" to="956670123#2" fromLane="0" toLane="0"/>
    <connection from="1312268128#1" to="-1312268128#1" fromLane="0" toLane="0"/>

    <connection from="1312268129" to="-1312268129" fromLane="0" toLane="0"/>

    <connection from="1312268130#0" to="1312268131" fromLane="0" toLane="0"/>
    <connection from="1312268130#0" to="1312268130#1" fromLane="0" toLane="0"/>
    <connection from="1312268130#0" to="-1312268130#0" fromLane="0" toLane="0"/>

    <connection from="1312268130#1" to="-1312268130#1" fromLane="0" toLane="0"/>

    <connection from="1312268131" to="-1312268131" fromLane="0" toLane="0"/>

    <connection from="1312268132#0" to="1312268132#1" fromLane="0" toLane="0"/>
    <connection from="1312268132#0" to="1312268133" fromLane="0" toLane="0"/>
    <connection from="1312268132#0" to="-1312268132#0" fromLane="0" toLane="0"/>

    <connection from="1312268132#1" to="-1312268132#1" fromLane="0" toLane="0"/>

    <connection from="1312268133" to="-1312268133" fromLane="0" toLane="0"/>

    <connection from="1312268134#0" to="-1312268168" fromLane="0" toLane="0"/>
    <connection from="1312268134#0" to="1312268134#1" fromLane="0" toLane="0"/>
    <connection from="1312268134#0" to="-1312268134#0" fromLane="0" toLane="0"/>

    <connection from="1312268134#1" to="1312268166#0" fromLane="0" toLane="0"/>
    <connection from="1312268134#1" to="1312268134#2" fromLane="0" toLane="0"/>
    <connection from="1312268134#1" to="-1312268134#1" fromLane="0" toLane="0"/>

    <connection from="1312268134#2" to="1314413904" fromLane="0" toLane="0"/>
    <connection from="1312268134#2" to="1314413899#0" fromLane="0" toLane="0"/>
    <connection from="1312268134#2" to="1312268134#3" fromLane="0" toLane="0"/>
    <connection from="1312268134#2" to="-1312268134#2" fromLane="0" toLane="0"/>

    <connection from="1312268134#3" to="1312268134#4" fromLane="0" toLane="0"/>
    <connection from="1312268134#3" to="1314413905" fromLane="0" toLane="0"/>
    <connection from="1312268134#3" to="-1312268134#3" fromLane="0" toLane="0"/>

    <connection from="1312268134#4" to="-1312268134#4" fromLane="0" toLane="0"/>

    <connection from="1312268148#0" to="1312268151" fromLane="0" toLane="0"/>
    <connection from="1312268148#0" to="1312268148#1" fromLane="0" toLane="0"/>
    <connection from="1312268148#0" to="-1312268148#0" fromLane="0" toLane="0"/>

    <connection from="1312268148#1" to="-801875603#2" fromLane="0" toLane="0"/>
    <connection from="1312268148#1" to="801875603#3" fromLane="0" toLane="0"/>
    <connection from="1312268148#1" to="-1312268149" fromLane="0" toLane="0"/>

    <connection from="1312268151" to="-1312268151" fromLane="0" toLane="0"/>

    <connection from="1312268157" to="-1312268157" fromLane="0" toLane="0"/>

    <connection from="1312268158" to="-1312268158" fromLane="0" toLane="0"/>

    <connection from="1312268159#0" to="1312268160#0" fromLane="0" toLane="0"/>
    <connection from="1312268159#0" to="1312268159#1" fromLane="0" toLane="0"/>
    <connection from="1312268159#0" to="-1312268159#0" fromLane="0" toLane="0"/>

    <connection from="1312268159#1" to="801875603#6" fromLane="0" toLane="0"/>
    <connection from="1312268159#1" to="-801875603#5" fromLane="0" toLane="0"/>
    <connection from="1312268159#1" to="-1312268159#1" fromLane="0" toLane="0"/>

    <connection from="1312268160#0" to="1312268160#1" fromLane="0" toLane="0"/>
    <connection from="1312268160#0" to="-1312268163" fromLane="0" toLane="0"/>
    <connection from="1312268160#0" to="-1312268160#0" fromLane="0" toLane="0"/>

    <connection from="1312268160#1" to="1312268160#2" fromLane="0" toLane="0"/>
    <connection from="1312268160#1" to="1312268162#0" fromLane="0" toLane="0"/>
    <connection from="1312268160#1" to="-1312268160#1" fromLane="0" toLane="0"/>

    <connection from="1312268160#2" to="1312268160#3" fromLane="0" toLane="0"/>
    <connection from="1312268160#2" to="1312268161" fromLane="0" toLane="0"/>
    <connection from="1312268160#2" to="-1312268160#2" fromLane="0" toLane="0"/>

    <connection from="1312268160#3" to="-1312268160#3" fromLane="0" toLane="0"/>

    <connection from="1312268161" to="1312268164" fromLane="0" toLane="0"/>
    <connection from="1312268161" to="-1312268162#3" fromLane="0" toLane="0"/>
    <connection from="1312268161" to="-1312268161" fromLane="0" toLane="0"/>

    <connection from="1312268162#0" to="1312268162#1" fromLane="0" toLane="0"/>
    <connection from="1312268162#0" to="1312268163" fromLane="0" toLane="0"/>
    <connection from="1312268162#0" to="-1312268162#0" fromLane="0" toLane="0"/>

    <connection from="1312268162#1" to="1312268162#2" fromLane="0" toLane="0"/>
    <connection from="1312268162#1" to="-1312268171#2" fromLane="0" toLane="0"/>
    <connection from="1312268162#1" to="-1312268162#1" fromLane="0" toLane="0"/>

    <connection from="1312268162#2" to="1312268162#3" fromLane="0" toLane="0"/>
    <connection from="1312268162#2" to="-1312268172" fromLane="0" toLane="0"/>
    <connection from="1312268162#2" to="-1312268162#2" fromLane="0" toLane="0"/>

    <connection from="1312268162#3" to="-1312268161" fromLane="0" toLane="0"/>
    <connection from="1312268162#3" to="1312268164" fromLane="0" toLane="0"/>
    <connection from="1312268162#3" to="-1312268162#3" fromLane="0" toLane="0"/>

    <connection from="1312268163" to="-1312268160#0" fromLane="0" toLane="0"/>
    <connection from="1312268163" to="1312268160#1" fromLane="0" toLane="0"/>
    <connection from="1312268163" to="-1312268163" fromLane="0" toLane="0"/>

    <connection from="1312268164" to="801875603#4" fromLane="0" toLane="0"/>
    <connection from="1312268164" to="-801875603#3" fromLane="0" toLane="0"/>
    <connection from="1312268164" to="-1312268164" fromLane="0" toLane="0"/>

    <connection from="1312268165" to="-1312268165" fromLane="0" toLane="0"/>

    <connection from="1312268166#0" to="1312268166#1" fromLane="0" toLane="0"/>
    <connection from="1312268166#0" to="1312268167" fromLane="0" toLane="0"/>
    <connection from="1312268166#0" to="-1312268166#0" fromLane="0" toLane="0"/>

    <connection from="1312268166#1" to="-1312268166#1" fromLane="0" toLane="0"/>

    <connection from="1312268167" to="-1312268167" fromLane="0" toLane="0"/>

    <connection from="1312268168" to="1312268134#1" fromLane="0" toLane="0"/>
    <connection from="1312268168" to="-1312268134#0" fromLane="0" toLane="0"/>
    <connection from="1312268168" to="-1312268168" fromLane="0" toLane="0"/>

    <connection from="1312268169" to="-1312268169" fromLane="0" toLane="0"/>

    <connection from="1312268170" to="-251750366#4" fromLane="0" toLane="0"/>
    <connection from="1312268170" to="830270079" fromLane="0" toLane="0"/>
    <connection from="1312268170" to="251750366#6" fromLane="0" toLane="0"/>
    <connection from="1312268170" to="-1312268170" fromLane="0" toLane="0"/>

    <connection from="1312268171#0" to="1312268173" fromLane="0" toLane="0"/>
    <connection from="1312268171#0" to="1312268171#1" fromLane="0" toLane="0"/>
    <connection from="1312268171#0" to="-1312268171#0" fromLane="0" toLane="0"/>

    <connection from="1312268171#1" to="1312268171#2" fromLane="0" toLane="0"/>
    <connection from="1312268171#1" to="1312268172" fromLane="0" toLane="0"/>
    <connection from="1312268171#1" to="-1312268171#1" fromLane="0" toLane="0"/>

    <connection from="1312268171#2" to="-1312268162#1" fromLane="0" toLane="0"/>
    <connection from="1312268171#2" to="1312268162#2" fromLane="0" toLane="0"/>
    <connection from="1312268171#2" to="-1312268171#2" fromLane="0" toLane="0"/>

    <connection from="1312268172" to="-1312268162#2" fromLane="0" toLane="0"/>
    <connection from="1312268172" to="1312268162#3" fromLane="0" toLane="0"/>
    <connection from="1312268172" to="-1312268172" fromLane="0" toLane="0"/>

    <connection from="1312268173" to="-1312268173" fromLane="0" toLane="0"/>

    <connection from="1314413870" to="-1314413870" fromLane="0" toLane="0"/>

    <connection from="1314413871#0" to="1314413871#1" fromLane="0" toLane="0"/>
    <connection from="1314413871#0" to="1314413873" fromLane="0" toLane="0"/>
    <connection from="1314413871#0" to="-1314413871#0" fromLane="0" toLane="0"/>

    <connection from="1314413871#1" to="1314413872" fromLane="0" toLane="0"/>
    <connection from="1314413871#1" to="-956669866#4" fromLane="0" toLane="0"/>
    <connection from="1314413871#1" to="956669866#5" fromLane="0" toLane="0"/>
    <connection from="1314413871#1" to="-1314413871#1" fromLane="0" toLane="0"/>

    <connection from="1314413872" to="-1314413872" fromLane="0" toLane="0"/>

    <connection from="1314413873" to="-1314413873" fromLane="0" toLane="0"/>

    <connection from="1314413874" to="-1314413874" fromLane="0" toLane="0"/>

    <connection from="1314413875" to="-1314413875" fromLane="0" toLane="0"/>

    <connection from="1314413876#0" to="1314413877" fromLane="0" toLane="0"/>
    <connection from="1314413876#0" to="1314413876#1" fromLane="0" toLane="0"/>
    <connection from="1314413876#0" to="-1314413876#0" fromLane="0" toLane="0"/>

    <connection from="1314413876#1" to="-1314413876#1" fromLane="0" toLane="0"/>

    <connection from="1314413877" to="-1314413877" fromLane="0" toLane="0"/>

    <connection from="1314413878" to="-1314413878" fromLane="0" toLane="0"/>

    <connection from="1314413879" to="-1314413879" fromLane="0" toLane="0"/>

    <connection from="1314413880" to="-1314413880" fromLane="0" toLane="0"/>

    <connection from="1314413881" to="1314413885#1" fromLane="0" toLane="0"/>
    <connection from="1314413881" to="1314413882#1" fromLane="0" toLane="0"/>
    <connection from="1314413881" to="-1314413885#0" fromLane="0" toLane="0"/>
    <connection from="1314413881" to="-1314413882#0" fromLane="0" toLane="0"/>

    <connection from="1314413882#1" to="-757219356#0" fromLane="0" toLane="0"/>
    <connection from="1314413882#1" to="1314413883#1" fromLane="0" toLane="0"/>
    <connection from="1314413882#1" to="757219356#1" fromLane="0" toLane="0"/>
    <connection from="1314413882#1" to="-1314413883#0" fromLane="0" toLane="0"/>

    <connection from="1314413883#1" to="-1314413883#1" fromLane="0" toLane="0"/>

    <connection from="1314413885#0" to="-1314413882#0" fromLane="0" toLane="0"/>
    <connection from="1314413885#0" to="1314413885#1" fromLane="0" toLane="0"/>
    <connection from="1314413885#0" to="1314413882#1" fromLane="0" toLane="0"/>
    <connection from="1314413885#0" to="-1314413885#0" fromLane="0" toLane="0"/>

    <connection from="1314413885#1" to="-1314413885#1" fromLane="0" toLane="0"/>

    <connection from="1314413898" to="-1314413898" fromLane="0" toLane="0"/>

    <connection from="1314413899#0" to="-1314413903" fromLane="0" toLane="0"/>
    <connection from="1314413899#0" to="1314413899#1" fromLane="0" toLane="0"/>
    <connection from="1314413899#0" to="-1314413899#0" fromLane="0" toLane="0"/>

    <connection from="1314413899#1" to="1314413902#0" fromLane="0" toLane="0"/>
    <connection from="1314413899#1" to="1314413901" fromLane="0" toLane="0"/>
    <connection from="1314413899#1" to="-1314413899#1" fromLane="0" toLane="0"/>

    <connection from="1314413901" to="-801336201#0" fromLane="0" toLane="0"/>
    <connection from="1314413901" to="801336201#1" fromLane="0" toLane="0"/>
    <connection from="1314413901" to="-1314413900" fromLane="0" toLane="0"/>

    <connection from="1314413902#0" to="1314413903" fromLane="0" toLane="0"/>
    <connection from="1314413902#0" to="1314413902#1" fromLane="0" toLane="0"/>
    <connection from="1314413902#0" to="-1314413902#0" fromLane="0" toLane="0"/>

    <connection from="1314413902#1" to="-1314413902#1" fromLane="0" toLane="0"/>

    <connection from="1314413903" to="1314413899#1" fromLane="0" toLane="0"/>
    <connection from="1314413903" to="-1314413899#0" fromLane="0" toLane="0"/>
    <connection from="1314413903" to="-1314413903" fromLane="0" toLane="0"/>

    <connection from="1314413904" to="-1314413904" fromLane="0" toLane="0"/>

    <connection from="1314413905" to="-1314413905" fromLane="0" toLane="0"/>

    <connection from="1314413906" to="-1314413906" fromLane="0" toLane="0"/>

    <connection from="1314413907" to="-1314413907" fromLane="0" toLane="0"/>

    <connection from="240191538#1" to="-1274749359#2" fromLane="0" toLane="0"/>
    <connection from="240191538#1" to="240191538#2" fromLane="0" toLane="0"/>
    <connection from="240191538#1" to="-240191538#1" fromLane="0" toLane="0"/>

    <connection from="240191538#2" to="801336201#0" fromLane="0" toLane="0"/>
    <connection from="240191538#2" to="620945896#0" fromLane="0" toLane="0"/>
    <connection from="240191538#2" to="809006623" fromLane="0" toLane="0"/>
    <connection from="240191538#2" to="-240191538#2" fromLane="0" toLane="0"/>

    <connection from="250523005#0" to="250523005#1" fromLane="0" toLane="0"/>
    <connection from="250523005#0" to="-956670123#2" fromLane="0" toLane="0"/>
    <connection from="250523005#0" to="-250523005#0" fromLane="0" toLane="0"/>

    <connection from="250523005#1" to="250635319#1" fromLane="0" toLane="0"/>
    <connection from="250523005#1" to="-801337281" fromLane="0" toLane="0"/>
    <connection from="250523005#1" to="1274749359#0" fromLane="0" toLane="0"/>
    <connection from="250523005#1" to="-250523005#1" fromLane="0" toLane="0"/>

    <connection from="250635319#1" to="-956671340" fromLane="0" toLane="0"/>

    <connection from="251742510#0" to="956554409" fromLane="0" toLane="0"/>
    <connection from="251742510#0" to="251742510#1" fromLane="0" toLane="0"/>
    <connection from="251742510#0" to="-251742510#0" fromLane="0" toLane="0"/>

    <connection from="251742510#1" to="-251742510#1" fromLane="0" toLane="0"/>

    <connection from="251750357" to="251750360#1" fromLane="0" toLane="0"/>

    <connection from="251750366#0" to="251750366#1" fromLane="0" toLane="0"/>
    <connection from="251750366#0" to="1116026256" fromLane="0" toLane="0"/>
    <connection from="251750366#0" to="-251750366#0" fromLane="0" toLane="0"/>

    <connection from="251750366#1" to="1312268169" fromLane="0" toLane="0"/>
    <connection from="251750366#1" to="251750366#2" fromLane="0" toLane="0"/>
    <connection from="251750366#1" to="-251750366#1" fromLane="0" toLane="0"/>

    <connection from="251750366#2" to="251750366#3" fromLane="0" toLane="0"/>
    <connection from="251750366#2" to="956615114#0" fromLane="0" toLane="0"/>
    <connection from="251750366#2" to="-251750366#2" fromLane="0" toLane="0"/>

    <connection from="251750366#3" to="251750366#4" fromLane="0" toLane="0"/>
    <connection from="251750366#3" to="251750367" fromLane="0" toLane="0"/>
    <connection from="251750366#3" to="-251750366#3" fromLane="0" toLane="0"/>

    <connection from="251750366#4" to="830270079" fromLane="0" toLane="0"/>
    <connection from="251750366#4" to="251750366#6" fromLane="0" toLane="0"/>
    <connection from="251750366#4" to="-1312268170" fromLane="0" toLane="0"/>
    <connection from="251750366#4" to="-251750366#4" fromLane="0" toLane="0"/>

    <connection from="251750366#6" to="-251750366#6" fromLane="0" toLane="0"/>

    <connection from="251750367" to="-750405609" fromLane="0" toLane="0"/>

    <connection from="290364427#0" to="290364427#1" fromLane="0" toLane="0"/>
    <connection from="290364427#0" to="-795605759#1" fromLane="0" toLane="0"/>
    <connection from="290364427#0" to="-290364427#0" fromLane="0" toLane="0"/>

    <connection from="290364427#1" to="736702743#0" fromLane="0" toLane="0"/>
    <connection from="290364427#1" to="290364427#2" fromLane="0" toLane="0"/>
    <connection from="290364427#1" to="-290364427#1" fromLane="0" toLane="0"/>

    <connection from="290364427#2" to="290364427#3" fromLane="0" toLane="0"/>
    <connection from="290364427#2" to="-596889247#8" fromLane="0" toLane="0"/>
    <connection from="290364427#2" to="-290364427#2" fromLane="0" toLane="0"/>

    <connection from="290364427#3" to="290364427#4" fromLane="0" toLane="0"/>
    <connection from="290364427#3" to="596889247#0" fromLane="0" toLane="0"/>
    <connection from="290364427#3" to="-290364427#3" fromLane="0" toLane="0"/>

    <connection from="290364427#4" to="1312268123#0" fromLane="0" toLane="0"/>
    <connection from="290364427#4" to="240191538#1" fromLane="0" toLane="0"/>
    <connection from="290364427#4" to="-240191538#0" fromLane="0" toLane="0"/>

    <connection from="311264111#0" to="1312268158" fromLane="0" toLane="0"/>
    <connection from="311264111#0" to="311264111#1" fromLane="0" toLane="0"/>
    <connection from="311264111#0" to="-311264111#0" fromLane="0" toLane="0"/>

    <connection from="311264111#1" to="-311264111#1" fromLane="0" toLane="0"/>

    <connection from="561717020#0" to="561717020#1" fromLane="0" toLane="0"/>
    <connection from="561717020#0" to="-956668902" fromLane="0" toLane="0"/>
    <connection from="561717020#0" to="-561717020#0" fromLane="0" toLane="0"/>

    <connection from="561717020#1" to="-561717020#1" fromLane="0" toLane="0"/>

    <connection from="596889246" to="-596889247#4" fromLane="0" toLane="0"/>
    <connection from="596889246" to="596889247#5" fromLane="0" toLane="0"/>
    <connection from="596889246" to="-596889246" fromLane="0" toLane="0"/>

    <connection from="596889247#0" to="596889247#1" fromLane="0" toLane="0"/>
    <connection from="596889247#0" to="1314413898" fromLane="0" toLane="0"/>
    <connection from="596889247#0" to="-596889247#0" fromLane="0" toLane="0"/>

    <connection from="596889247#1" to="-620945897#1" fromLane="0" toLane="0"/>
    <connection from="596889247#1" to="596889247#2" fromLane="0" toLane="0"/>
    <connection from="596889247#1" to="-596889247#1" fromLane="0" toLane="0"/>

    <connection from="596889247#2" to="1314413906" fromLane="0" toLane="0"/>
    <connection from="596889247#2" to="596889247#3" fromLane="0" toLane="0"/>
    <connection from="596889247#2" to="-596889247#2" fromLane="0" toLane="0"/>

    <connection from="596889247#3" to="251742510#0" fromLane="0" toLane="0"/>
    <connection from="596889247#3" to="596889247#4" fromLane="0" toLane="0"/>
    <connection from="596889247#3" to="-596889247#3" fromLane="0" toLane="0"/>

    <connection from="596889247#4" to="596889247#5" fromLane="0" toLane="0"/>
    <connection from="596889247#4" to="-596889246" fromLane="0" toLane="0"/>
    <connection from="596889247#4" to="-596889247#4" fromLane="0" toLane="0"/>

    <connection from="596889247#5" to="596889247#6" fromLane="0" toLane="0"/>
    <connection from="596889247#5" to="596889246" fromLane="0" toLane="0"/>
    <connection from="596889247#5" to="-596889247#5" fromLane="0" toLane="0"/>

    <connection from="596889247#6" to="956553914" fromLane="0" toLane="0"/>
    <connection from="596889247#6" to="596889247#7" fromLane="0" toLane="0"/>
    <connection from="596889247#6" to="-596889247#6" fromLane="0" toLane="0"/>

    <connection from="596889247#7" to="1314413881" fromLane="0" toLane="0"/>
    <connection from="596889247#7" to="596889247#8" fromLane="0" toLane="0"/>
    <connection from="596889247#7" to="-596889247#7" fromLane="0" toLane="0"/>

    <connection from="596889247#8" to="-290364427#2" fromLane="0" toLane="0"/>
    <connection from="596889247#8" to="290364427#3" fromLane="0" toLane="0"/>
    <connection from="596889247#8" to="-596889247#8" fromLane="0" toLane="0"/>

    <connection from="620945896#0" to="1312268132#0" fromLane="0" toLane="0"/>
    <connection from="620945896#0" to="620945896#1" fromLane="0" toLane="0"/>
    <connection from="620945896#0" to="-620945896#0" fromLane="0" toLane="0"/>

    <connection from="620945896#1" to="1312268134#0" fromLane="0" toLane="0"/>
    <connection from="620945896#1" to="620945896#2" fromLane="0" toLane="0"/>
    <connection from="620945896#1" to="-620945896#1" fromLane="0" toLane="0"/>

    <connection from="620945896#2" to="-801875603#6" fromLane="0" toLane="0"/>
    <connection from="620945896#2" to="620945896#3" fromLane="0" toLane="0"/>
    <connection from="620945896#2" to="-620945896#2" fromLane="0" toLane="0"/>

    <connection from="620945896#3" to="1312268171#0" fromLane="0" toLane="0"/>
    <connection from="620945896#3" to="620945896#4" fromLane="0" toLane="0"/>
    <connection from="620945896#3" to="-830270080" fromLane="0" toLane="0"/>
    <connection from="620945896#3" to="-620945896#3" fromLane="0" toLane="0"/>

    <connection from="620945896#4" to="801875603#0" fromLane="0" toLane="0"/>
    <connection from="620945896#4" to="620945896#5" fromLane="0" toLane="0"/>
    <connection from="620945896#4" to="-620945896#4" fromLane="0" toLane="0"/>

    <connection from="620945896#5" to="-620945896#5" fromLane="0" toLane="0"/>

    <connection from="620945897#0" to="1314413907" fromLane="0" toLane="0"/>
    <connection from="620945897#0" to="620945897#1" fromLane="0" toLane="0"/>
    <connection from="620945897#0" to="-620945897#0" fromLane="0" toLane="0"/>

    <connection from="620945897#1" to="596889247#2" fromLane="0" toLane="0"/>
    <connection from="620945897#1" to="-596889247#1" fromLane="0" toLane="0"/>
    <connection from="620945897#1" to="-620945897#1" fromLane="0" toLane="0"/>

    <connection from="736702743#0" to="736702743#1" fromLane="0" toLane="0"/>

    <connection from="736702743#1" to="736702743#2" fromLane="0" toLane="0"/>
    <connection from="736702743#1" to="-1312268120#2" fromLane="0" toLane="0"/>
    <connection from="736702743#1" to="-736702743#1" fromLane="0" toLane="0"/>

    <connection from="736702743#2" to="736702743#3" fromLane="0" toLane="0"/>
    <connection from="736702743#2" to="1314413880" fromLane="0" toLane="0"/>
    <connection from="736702743#2" to="-736702743#2" fromLane="0" toLane="0"/>

    <connection from="736702743#3" to="-801313290" fromLane="0" toLane="0"/>
    <connection from="736702743#3" to="736702743#4" fromLane="0" toLane="0"/>
    <connection from="736702743#3" to="-736702743#3" fromLane="0" toLane="0"/>

    <connection from="736702743#4" to="736702745" fromLane="0" toLane="0"/>
    <connection from="736702743#4" to="956669866#0" fromLane="0" toLane="0"/>
    <connection from="736702743#4" to="-736702744" fromLane="0" toLane="0"/>

    <connection from="736702745" to="-736702745" fromLane="0" toLane="0"/>

    <connection from="757219356#0" to="1314413883#1" fromLane="0" toLane="0"/>
    <connection from="757219356#0" to="757219356#1" fromLane="0" toLane="0"/>
    <connection from="757219356#0" to="-1314413883#0" fromLane="0" toLane="0"/>
    <connection from="757219356#0" to="-757219356#0" fromLane="0" toLane="0"/>

    <connection from="757219356#1" to="757219356#2" fromLane="0" toLane="0"/>
    <connection from="757219356#1" to="854277421" fromLane="0" toLane="0"/>
    <connection from="757219356#1" to="-757219356#1" fromLane="0" toLane="0"/>

    <connection from="757219356#2" to="-757219356#2" fromLane="0" toLane="0"/>

    <connection from="795605759#1" to="-290364427#0" fromLane="0" toLane="0"/>
    <connection from="795605759#1" to="290364427#1" fromLane="0" toLane="0"/>
    <connection from="795605759#1" to="-795605759#1" fromLane="0" toLane="0"/>

    <connection from="801313288" to="736702743#4" fromLane="0" toLane="0"/>
    <connection from="801313288" to="-736702743#3" fromLane="0" toLane="0"/>
    <connection from="801313288" to="-801313290" fromLane="0" toLane="0"/>

    <connection from="801336201#0" to="801336201#1" fromLane="0" toLane="0"/>
    <connection from="801336201#0" to="-1314413900" fromLane="0" toLane="0"/>
    <connection from="801336201#0" to="-801336201#0" fromLane="0" toLane="0"/>

    <connection from="801336201#1" to="1274749359#0" fromLane="0" toLane="0"/>
    <connection from="801336201#1" to="-250523005#1" fromLane="0" toLane="0"/>
    <connection from="801336201#1" to="250635319#1" fromLane="0" toLane="0"/>
    <connection from="801336201#1" to="-801337281" fromLane="0" toLane="0"/>

    <connection from="801875603#0" to="801875603#1" fromLane="0" toLane="0"/>
    <connection from="801875603#0" to="-1083437763" fromLane="0" toLane="0"/>
    <connection from="801875603#0" to="-801875603#0" fromLane="0" toLane="0"/>

    <connection from="801875603#1" to="801875603#2" fromLane="0" toLane="0"/>
    <connection from="801875603#1" to="1083437762" fromLane="0" toLane="0"/>
    <connection from="801875603#1" to="-801875603#1" fromLane="0" toLane="0"/>

    <connection from="801875603#2" to="801875603#3" fromLane="0" toLane="0"/>
    <connection from="801875603#2" to="-1312268149" fromLane="0" toLane="0"/>
    <connection from="801875603#2" to="-801875603#2" fromLane="0" toLane="0"/>

    <connection from="801875603#3" to="-1312268164" fromLane="0" toLane="0"/>
    <connection from="801875603#3" to="801875603#4" fromLane="0" toLane="0"/>
    <connection from="801875603#3" to="-801875603#3" fromLane="0" toLane="0"/>

    <connection from="801875603#4" to="1312268159#0" fromLane="0" toLane="0"/>
    <connection from="801875603#4" to="801875603#5" fromLane="0" toLane="0"/>
    <connection from="801875603#4" to="-801875603#4" fromLane="0" toLane="0"/>

    <connection from="801875603#5" to="-1312268159#1" fromLane="0" toLane="0"/>
    <connection from="801875603#5" to="801875603#6" fromLane="0" toLane="0"/>
    <connection from="801875603#5" to="-801875603#5" fromLane="0" toLane="0"/>

    <connection from="801875603#6" to="620945896#3" fromLane="0" toLane="0"/>
    <connection from="801875603#6" to="-620945896#2" fromLane="0" toLane="0"/>
    <connection from="801875603#6" to="-801875603#6" fromLane="0" toLane="0"/>

    <connection from="809006623" to="251750366#0" fromLane="0" toLane="0"/>
    <connection from="809006623" to="620945897#0" fromLane="0" toLane="0"/>
    <connection from="809006623" to="-809006623" fromLane="0" toLane="0"/>

    <connection from="830270079" to="830270081" fromLane="0" toLane="0"/>

    <connection from="830270080" to="-620945896#3" fromLane="0" toLane="0"/>
    <connection from="830270080" to="1312268171#0" fromLane="0" toLane="0"/>
    <connection from="830270080" to="620945896#4" fromLane="0" toLane="0"/>
    <connection from="830270080" to="-830270080" fromLane="0" toLane="0"/>

    <connection from="830270081" to="830270080" fromLane="0" toLane="0"/>

    <connection from="854277421" to="795605759#1" fromLane="0" toLane="0"/>
    <connection from="854277421" to="1314413885#0" fromLane="0" toLane="0"/>
    <connection from="854277421" to="-795605759#0" fromLane="0" toLane="0"/>

    <connection from="916761965#0" to="956670123#0" fromLane="0" toLane="0"/>
    <connection from="916761965#0" to="916761965#1" fromLane="0" toLane="0"/>
    <connection from="916761965#0" to="-916761965#0" fromLane="0" toLane="0"/>

    <connection from="916761965#1" to="-1312265157#1" fromLane="0" toLane="0"/>
    <connection from="916761965#1" to="916761965#2" fromLane="0" toLane="0"/>
    <connection from="916761965#1" to="-916761965#1" fromLane="0" toLane="0"/>

    <connection from="916761965#2" to="916761965#3" fromLane="0" toLane="0"/>
    <connection from="916761965#2" to="1314413874" fromLane="0" toLane="0"/>
    <connection from="916761965#2" to="-916761965#2" fromLane="0" toLane="0"/>

    <connection from="916761965#3" to="1314413871#0" fromLane="0" toLane="0"/>
    <connection from="916761965#3" to="916761965#4" fromLane="0" toLane="0"/>
    <connection from="916761965#3" to="-916761965#3" fromLane="0" toLane="0"/>

    <connection from="916761965#4" to="-916761965#4" fromLane="0" toLane="0"/>

    <connection from="916761966" to="-916761966" fromLane="0" toLane="0"/>

    <connection from="916761967" to="-561717020#0" fromLane="0" toLane="0"/>
    <connection from="916761967" to="561717020#1" fromLane="0" toLane="0"/>
    <connection from="916761967" to="-956668902" fromLane="0" toLane="0"/>

    <connection from="923060265#0" to="923060265#1" fromLane="0" toLane="0"/>
    <connection from="923060265#0" to="-956669866#5" fromLane="0" toLane="0"/>
    <connection from="923060265#0" to="-923060265#0" fromLane="0" toLane="0"/>

    <connection from="923060265#1" to="-923060265#1" fromLane="0" toLane="0"/>

    <connection from="956553914" to="-956553914" fromLane="0" toLane="0"/>

    <connection from="956554408#1" to="-1116026256" fromLane="0" toLane="0"/>
    <connection from="956554408#1" to="956554408#2" fromLane="0" toLane="0"/>
    <connection from="956554408#1" to="-956554408#1" fromLane="0" toLane="0"/>

    <connection from="956554408#2" to="-956615114#0" fromLane="0" toLane="0"/>
    <connection from="956554408#2" to="956615114#1" fromLane="0" toLane="0"/>
    <connection from="956554408#2" to="-956554408#2" fromLane="0" toLane="0"/>

    <connection from="956554409" to="956554408#1" fromLane="0" toLane="0"/>
    <connection from="956554409" to="-1312265152" fromLane="0" toLane="0"/>
    <connection from="956554409" to="-956554408#0" fromLane="0" toLane="0"/>

    <connection from="956615114#0" to="956615114#1" fromLane="0" toLane="0"/>
    <connection from="956615114#0" to="-956554408#2" fromLane="0" toLane="0"/>
    <connection from="956615114#0" to="-956615114#0" fromLane="0" toLane="0"/>

    <connection from="956615114#1" to="-956615113" fromLane="0" toLane="0"/>

    <connection from="956669866#0" to="956669866#1" fromLane="0" toLane="0"/>
    <connection from="956669866#0" to="1314413879" fromLane="0" toLane="0"/>
    <connection from="956669866#0" to="-956669866#0" fromLane="0" toLane="0"/>

    <connection from="956669866#1" to="1314413878" fromLane="0" toLane="0"/>
    <connection from="956669866#1" to="956669866#2" fromLane="0" toLane="0"/>
    <connection from="956669866#1" to="-956669866#1" fromLane="0" toLane="0"/>

    <connection from="956669866#2" to="956669866#3" fromLane="0" toLane="0"/>
    <connection from="956669866#2" to="1314413875" fromLane="0" toLane="0"/>
    <connection from="956669866#2" to="-956669866#2" fromLane="0" toLane="0"/>

    <connection from="956669866#3" to="956669866#4" fromLane="0" toLane="0"/>
    <connection from="956669866#3" to="1314413876#0" fromLane="0" toLane="0"/>
    <connection from="956669866#3" to="-956669866#3" fromLane="0" toLane="0"/>

    <connection from="956669866#4" to="956669866#5" fromLane="0" toLane="0"/>
    <connection from="956669866#4" to="-1314413871#1" fromLane="0" toLane="0"/>
    <connection from="956669866#4" to="1314413872" fromLane="0" toLane="0"/>
    <connection from="956669866#4" to="-956669866#4" fromLane="0" toLane="0"/>

    <connection from="956669866#5" to="-923060265#0" fromLane="0" toLane="0"/>
    <connection from="956669866#5" to="923060265#1" fromLane="0" toLane="0"/>
    <connection from="956669866#5" to="-956669866#5" fromLane="0" toLane="0"/>

    <connection from="956670123#0" to="956670123#1" fromLane="0" toLane="0"/>
    <connection from="956670123#0" to="956670654#0" fromLane="0" toLane="0"/>
    <connection from="956670123#0" to="-956670123#0" fromLane="0" toLane="0"/>

    <connection from="956670123#1" to="956670123#2" fromLane="0" toLane="0"/>
    <connection from="956670123#1" to="-1312268128#1" fromLane="0" toLane="0"/>
    <connection from="956670123#1" to="-956670123#1" fromLane="0" toLane="0"/>

    <connection from="956670123#2" to="-250523005#0" fromLane="0" toLane="0"/>
    <connection from="956670123#2" to="250523005#1" fromLane="0" toLane="0"/>
    <connection from="956670123#2" to="-956670123#2" fromLane="0" toLane="0"/>

    <connection from="956670654#0" to="956670654#1" fromLane="0" toLane="0"/>
    <connection from="956670654#0" to="1312265157#0" fromLane="0" toLane="0"/>
    <connection from="956670654#0" to="-956670654#0" fromLane="0" toLane="0"/>

    <connection from="956670654#1" to="-956670654#1" fromLane="0" toLane="0"/>

    <connection from="956670966" to="-801875603#1" fromLane="0" toLane="0"/>
    <connection from="956670966" to="801875603#2" fromLane="0" toLane="0"/>
    <connection from="956670966" to="1083437762" fromLane="0" toLane="0"/>

    <connection from="956671340" to="-250635319#1" fromLane="0" toLane="0"/>

</connections>
