<?xml version="1.0" encoding="UTF-8"?>

<!-- generated on 2025-03-09 22:32:02 by Eclipse SUMO netconvert Version 1.22.0
<netconvertConfiguration xmlns:xsi="http://www.w3.org/2001/XMLSchema-instance" xsi:noNamespaceSchemaLocation="http://sumo.dlr.de/xsd/netconvertConfiguration.xsd">

    <input>
        <sumo-net-file value="osm.net.xml"/>
    </input>

    <output>
        <plain-output-prefix value="output"/>
        <output.street-names value="true"/>
    </output>

    <processing>
        <geometry.min-radius.fix.railways value="false"/>
        <geometry.max-grade.fix value="false"/>
        <offset.disable-normalization value="true"/>
        <lefthand value="1"/>
    </processing>

    <junctions>
        <no-turnarounds value="true"/>
        <junctions.corner-detail value="5"/>
        <junctions.limit-turn-speed value="5.50"/>
        <rectangular-lane-cut value="0"/>
    </junctions>

    <pedestrian>
        <walkingareas value="0"/>
    </pedestrian>

</netconvertConfiguration>
-->

<nodes version="1.20" xmlns:xsi="http://www.w3.org/2001/XMLSchema-instance" xsi:noNamespaceSchemaLocation="http://sumo.dlr.de/xsd/nodes_file.xsd">
    <location netOffset="-686488.78,-992406.50" convBoundary="0.00,0.00,2345.59,1369.24" origBoundary="76.696361,8.973920,76.717670,8.986286" projParameter="+proj=utm +zone=43 +ellps=WGS84 +datum=WGS84 +units=m +no_defs"/>

    <node id="10207564177" x="1870.55" y="565.25" type="priority"/>
    <node id="10207564179" x="1855.72" y="383.93" type="priority"/>
    <node id="1051448636" x="984.23" y="465.64" type="priority"/>
    <node id="12146414290" x="1567.77" y="21.64" type="priority"/>
    <node id="12146414306" x="1344.77" y="235.28" type="priority"/>
    <node id="12146414307" x="1344.33" y="250.50" type="priority"/>
    <node id="12146414321" x="1322.21" y="30.73" type="priority"/>
    <node id="12146414356" x="680.07" y="932.22" type="priority"/>
    <node id="12146414362" x="747.42" y="1057.23" type="priority"/>
    <node id="12146423083" x="657.84" y="836.38" type="priority"/>
    <node id="12146423084" x="709.17" y="845.38" type="priority"/>
    <node id="12146423087" x="794.53" y="761.76" type="priority"/>
    <node id="12146423091" x="764.29" y="706.27" type="priority"/>
    <node id="12146423093" x="754.36" y="743.93" type="priority"/>
    <node id="12146423095" x="989.63" y="817.00" type="priority"/>
    <node id="12146423097" x="722.52" y="572.90" type="priority"/>
    <node id="12146436303" x="629.82" y="589.00" type="priority"/>
    <node id="12146436310" x="697.95" y="382.79" type="priority"/>
    <node id="12146436315" x="803.40" y="378.29" type="priority"/>
    <node id="12146436318" x="873.52" y="586.98" type="priority"/>
    <node id="12146436321" x="854.15" y="676.96" type="priority"/>
    <node id="12146436322" x="846.15" y="743.01" type="priority"/>
    <node id="12146436323" x="882.20" y="683.84" type="priority"/>
    <node id="12146436324" x="836.75" y="571.18" type="priority"/>
    <node id="12146436325" x="906.70" y="554.58" type="priority"/>
    <node id="12146436328" x="983.89" y="617.70" type="priority"/>
    <node id="12146436329" x="961.69" y="701.45" type="priority"/>
    <node id="12146436330" x="1003.54" y="624.36" type="priority"/>
    <node id="12146436331" x="1229.47" y="785.40" type="priority"/>
    <node id="12146436355" x="958.77" y="1084.59" type="priority"/>
    <node id="12146436356" x="989.56" y="923.78" type="priority"/>
    <node id="12146436358" x="898.72" y="900.40" type="priority"/>
    <node id="12146436359" x="1243.93" y="916.50" type="priority"/>
    <node id="12146436360" x="1147.58" y="914.93" type="priority"/>
    <node id="12146436362" x="1133.73" y="950.50" type="priority"/>
    <node id="12146436363" x="1121.77" y="883.39" type="priority"/>
    <node id="12146436364" x="1584.47" y="715.68" type="priority"/>
    <node id="12146436367" x="1610.40" y="815.01" type="priority"/>
    <node id="12146436371" x="1617.28" y="861.48" type="priority"/>
    <node id="12146436373" x="1654.90" y="837.16" type="priority"/>
    <node id="12146436374" x="1773.30" y="730.16" type="priority"/>
    <node id="12146436379" x="1754.07" y="977.10" type="priority"/>
    <node id="12146436395" x="1537.09" y="1153.88" type="priority"/>
    <node id="12146436402" x="1600.55" y="1253.99" type="priority"/>
    <node id="12146436404" x="1604.22" y="1348.17" type="priority"/>
    <node id="12146436463" x="1863.77" y="1368.00" type="priority"/>
    <node id="12146436467" x="1866.71" y="1360.37" type="priority"/>
    <node id="12146436470" x="1920.08" y="1369.24" type="priority"/>
    <node id="12146436506" x="2149.53" y="1365.34" type="priority"/>
    <node id="12146436509" x="2140.51" y="1344.86" type="priority"/>
    <node id="12146436510" x="2330.31" y="1279.82" type="priority"/>
    <node id="12146436512" x="2225.90" y="1313.50" type="priority"/>
    <node id="12146436513" x="1861.04" y="919.77" type="priority"/>
    <node id="12146436514" x="1970.94" y="884.15" type="priority"/>
    <node id="12146436522" x="2036.79" y="933.44" type="priority"/>
    <node id="12146436525" x="2069.13" y="974.25" type="priority"/>
    <node id="12146436531" x="2080.96" y="1077.36" type="priority"/>
    <node id="12146436534" x="2178.26" y="984.87" type="priority"/>
    <node id="12146436535" x="2048.48" y="960.84" type="priority"/>
    <node id="12146436536" x="2061.49" y="943.82" type="priority"/>
    <node id="12146436562" x="1887.90" y="1195.81" type="priority"/>
    <node id="12146436569" x="2331.86" y="792.71" type="priority"/>
    <node id="12146436572" x="2331.06" y="849.92" type="priority"/>
    <node id="12146436573" x="1643.27" y="980.79" type="priority"/>
    <node id="12146436575" x="1651.88" y="905.58" type="priority"/>
    <node id="12146436577" x="1641.73" y="1006.34" type="priority"/>
    <node id="12146436578" x="1694.90" y="888.44" type="priority"/>
    <node id="12146436581" x="1771.79" y="843.37" type="priority"/>
    <node id="12146436582" x="1964.90" y="517.48" type="priority"/>
    <node id="12146436587" x="1978.59" y="623.93" type="priority"/>
    <node id="12146436595" x="2274.99" y="132.68" type="priority"/>
    <node id="12146436614" x="2127.59" y="779.81" type="priority"/>
    <node id="12146436615" x="2130.11" y="807.62" type="priority"/>
    <node id="12146436617" x="2130.95" y="865.53" type="priority"/>
    <node id="12146436621" x="2159.68" y="881.80" type="priority"/>
    <node id="12146436622" x="2088.01" y="777.42" type="priority"/>
    <node id="12165906020" x="12.05" y="1290.95" type="priority"/>
    <node id="12165906021" x="62.40" y="1286.09" type="priority"/>
    <node id="12165906025" x="404.24" y="933.92" type="priority"/>
    <node id="12165906028" x="508.14" y="905.96" type="priority"/>
    <node id="12165906029" x="497.86" y="944.90" type="priority"/>
    <node id="12165906038" x="547.86" y="1348.79" type="priority"/>
    <node id="12165906050" x="761.55" y="1352.00" type="priority"/>
    <node id="12165906052" x="573.79" y="702.10" type="priority"/>
    <node id="12165906053" x="500.85" y="814.13" type="priority"/>
    <node id="12165906054" x="549.63" y="801.03" type="priority"/>
    <node id="12165906055" x="487.70" y="852.27" type="priority"/>
    <node id="12165906056" x="416.93" y="668.82" type="priority"/>
    <node id="12165906060" x="198.67" y="746.47" type="priority"/>
    <node id="12165906061" x="412.13" y="637.19" type="priority"/>
    <node id="12165906062" x="524.34" y="612.01" type="priority"/>
    <node id="12165906068" x="534.15" y="523.14" type="priority"/>
    <node id="12165906069" x="657.68" y="118.70" type="priority"/>
    <node id="12165906071" x="517.69" y="34.00" type="priority"/>
    <node id="12165906073" x="484.24" y="15.18" type="priority"/>
    <node id="12165906081" x="539.27" y="50.84" type="priority"/>
    <node id="12165906083" x="569.25" y="2.25" type="priority"/>
    <node id="12165906143" x="929.71" y="352.73" type="priority"/>
    <node id="12165906145" x="948.64" y="193.41" type="priority"/>
    <node id="12165906147" x="1470.42" y="1153.60" type="priority"/>
    <node id="12165906153" x="1452.29" y="1057.99" type="priority"/>
    <node id="12165906155" x="1449.79" y="1031.61" type="priority"/>
    <node id="12165906156" x="1452.13" y="1091.20" type="priority"/>
    <node id="12165906163" x="1536.18" y="842.97" type="priority"/>
    <node id="12165906167" x="1557.05" y="1037.87" type="priority"/>
    <node id="12165906169" x="1652.23" y="1277.53" type="priority"/>
    <node id="12165906170" x="1068.76" y="361.09" type="priority"/>
    <node id="12165906173" x="1181.10" y="343.88" type="priority"/>
    <node id="12165906174" x="1153.72" y="501.18" type="priority"/>
    <node id="12165906177" x="1204.42" y="448.53" type="priority"/>
    <node id="245582383" x="90.25" y="84.57" type="priority"/>
    <node id="2479468029" x="1840.86" y="745.98" type="priority"/>
    <node id="2570383252" x="1102.01" y="1205.05" type="priority"/>
    <node id="2570383494" x="1053.12" y="1316.18" type="priority"/>
    <node id="2579339966" x="1994.27" y="21.37" type="priority"/>
    <node id="2579340113" x="2300.94" y="336.95" type="priority"/>
    <node id="2579340132" x="2151.07" y="366.84" type="priority"/>
    <node id="2579340198" x="1383.15" y="641.13" type="priority"/>
    <node id="2579340219" x="1373.61" y="677.25" type="priority"/>
    <node id="3168617968" x="2338.98" y="1177.69" type="priority"/>
    <node id="3168617970" x="2339.08" y="1360.41" type="priority"/>
    <node id="345210881" x="737.21" y="299.77" type="priority"/>
    <node id="3523084980" x="1237.21" y="614.75" type="priority"/>
    <node id="5349398303" x="35.41" y="95.62" type="dead_end"/>
    <node id="5415985127" x="299.59" y="1362.19" type="priority"/>
    <node id="5415985132" x="135.01" y="1361.12" type="priority"/>
    <node id="5684822299" x="1029.48" y="37.04" type="priority"/>
    <node id="5684822309" x="606.09" y="271.57" type="priority"/>
    <node id="5684822314" x="709.75" y="53.65" type="priority"/>
    <node id="5684822316" x="798.59" y="42.92" type="priority"/>
    <node id="5684822320" x="1050.07" y="39.26" type="priority"/>
    <node id="5684822526" x="1045.01" y="395.42" type="priority"/>
    <node id="5974684227" x="2345.59" y="479.80" type="dead_end"/>
    <node id="6897428808" x="540.57" y="254.47" type="priority"/>
    <node id="6897428809" x="505.10" y="337.83" type="priority"/>
    <node id="6897428811" x="468.13" y="359.05" type="priority"/>
    <node id="6897428812" x="381.12" y="358.06" type="priority"/>
    <node id="6897428814" x="388.26" y="545.85" type="priority"/>
    <node id="7016592083" x="197.66" y="4.08" type="priority"/>
    <node id="7016611698" x="532.06" y="7.77" type="priority"/>
    <node id="7016611728" x="1094.79" y="14.12" type="priority"/>
    <node id="7016611730" x="1106.00" y="34.78" type="priority"/>
    <node id="7441594088" x="404.62" y="96.06" type="priority"/>
    <node id="7441594161" x="390.90" y="108.24" type="priority"/>
    <node id="7441594172" x="365.03" y="209.30" type="priority"/>
    <node id="7494442941" x="8.85" y="217.53" type="priority"/>
    <node id="7500235953" x="517.40" y="308.93" type="rail_crossing">
        <param key="crossing:barrier" value="full"/>
    </node>
    <node id="7500339350" x="2285.47" y="658.25" type="priority"/>
    <node id="7500406402" x="2280.28" y="656.02" type="priority"/>
    <node id="7500406415" x="2254.33" y="971.08" type="priority"/>
    <node id="7500406439" x="1891.63" y="1255.25" type="priority"/>
    <node id="7500406459" x="1858.52" y="826.87" type="priority"/>
    <node id="7564569545" x="325.25" y="574.17" type="priority"/>
    <node id="7749951325" x="2226.97" y="641.07" type="priority"/>
    <node id="7749951326" x="2292.23" y="528.85" type="priority"/>
    <node id="7749951327" x="2277.84" y="465.57" type="priority"/>
    <node id="8514866874" x="640.58" y="993.82" type="priority"/>
    <node id="8514866879" x="562.53" y="957.48" type="priority"/>
    <node id="8514866880" x="561.71" y="972.72" type="priority"/>
    <node id="8514866897" x="1.48" y="958.38" type="priority"/>
    <node id="8514866898" x="0.00" y="946.38" type="priority"/>
    <node id="8514866915" x="1.07" y="916.50" type="priority"/>
    <node id="8514867161" x="950.79" y="1363.21" type="priority"/>
    <node id="8568746957" x="376.67" y="1162.77" type="priority"/>
    <node id="8568746960" x="426.81" y="1001.06" type="priority"/>
    <node id="8852704957" x="702.32" y="15.10" type="priority"/>
    <node id="8852708571" x="1948.50" y="387.99" type="priority"/>
    <node id="8853240210" x="2010.28" y="492.24" type="priority"/>
    <node id="8853274024" x="1881.10" y="1.78" type="priority"/>
    <node id="8853756715" x="913.51" y="1088.07" type="priority"/>
    <node id="8853763394" x="819.90" y="1130.68" type="priority"/>
    <node id="8853775489" x="464.49" y="756.99" type="priority"/>
    <node id="8853775491" x="473.10" y="782.60" type="priority"/>
    <node id="8853775506" x="411.27" y="1093.27" type="priority"/>
    <node id="8853777187" x="264.74" y="1352.61" type="priority"/>
    <node id="8853802823" x="795.69" y="931.77" type="priority"/>
    <node id="8853802826" x="845.94" y="883.02" type="priority"/>
    <node id="8853804372" x="1356.95" y="1359.40" type="priority"/>
    <node id="8853804378" x="1287.42" y="1278.68" type="priority"/>
    <node id="9928852202" x="2242.10" y="1014.67" type="priority"/>
    <node id="9928852205" x="2342.93" y="976.43" type="priority"/>
    <node id="cluster_12146436309_12146436314" x="737.49" y="389.51" type="priority">
        <param key="origEdgeIds" value="-1312268121#0 1312268121#0"/>
        <param key="origId" value="12146436309 12146436314"/>
    </node>
    <node id="cluster_12146436604_7749951314" x="2228.70" y="351.22" type="priority">
        <param key="origEdgeIds" value="-251750366#5 251750366#5"/>
        <param key="origId" value="12146436604 7749951314"/>
    </node>
    <node id="cluster_2570383468_7494627564" x="1269.74" y="1190.51" type="priority">
        <param key="origEdgeIds" value="-250635319#0 250635319#0"/>
        <param key="origId" value="2570383468 7494627564"/>
    </node>
</nodes>
